

;;____________________________________________________________________________________________________
[OPTIONS]
FLOW_UNITS           LPS
INFILTRATION         HORTON
FLOW_ROUTING         DYNWAVE
LINK_OFFSETS         DEPTH
MIN_SLOPE            0
ALLOW_PONDING        YES
SKIP_STEADY_STATE    NO
START_DATE           1/1/2002
START_TIME           00:00:00
REPORT_START_DATE    1/1/2002
REPORT_START_TIME    00:00:00
END_DATE             1/2/2002
END_TIME             12:00:00
SWEEP_START          01/01
SWEEP_END            12/31
DRY_DAYS             0
REPORT_STEP          00:01:00
WET_STEP             00:01:00
DRY_STEP             00:05:00
ROUTING_STEP         0:00:30
RULE_STEP            00:00:00
INERTIAL_DAMPING     PARTIAL
NORMAL_FLOW_LIMITED  BOTH
FORCE_MAIN_EQUATION  H-W
VARIABLE_STEP        0.75
LENGTHENING_STEP     0
MIN_SURFAREA         1.167
MAX_TRIALS           8
HEAD_TOLERANCE       0.0015
SYS_FLOW_TOL         5
LAT_FLOW_TOL         5
MINIMUM_STEP         0.5
THREADS              1


;;____________________________________________________________________________________________________
[REPORT]
SUBCATCHMENTS  ALL
NODES          ALL
LINKS          ALL


;;____________________________________________________________________________________________________
[JUNCTIONS]
B0-4 4.8687 1.5 0 0 500
B0-3 4.847582 1.5 0 0 500
B0-2 4.778712 1.5 0 0 500
B108-2 4.682344 1.5 0 0 500
A1 4.477479 1.7 0 0 500
B68-2 4.429725 1.7 0 0 500
B68-3 4.169455 1.9 0 0 500
B68-4 4.134437 1.9 0 0 500
B68-5 3.927066 2.05 0 0 500
B68-6 3.881213 2.05 0 0 500
B68-7 3.823979 2.05 0 0 500
B68-8 3.761282 2.05 0 0 500
B67-3 4.942607 1.5 0 0 500
B0-5 4.871029 1.5 0 0 500
B67-2 4.701689 1.7 0 0 500
A2 4.46439 1.9 0 0 500
B56-8 4.442724 1.9 0 0 500
B56-7 4.406048 1.9 0 0 500
B56-6 4.357667 1.9 0 0 500
B56-5 4.138237 2.05 0 0 500
B56-4 4.088031 2.05 0 0 500
B56-3 4.023925 2.05 0 0 500
B56-2 3.798014 2.2 0 0 500
B100-5 4.071673 1.5 0 0 500
B100-4 4.05602 1.5 0 0 500
B100-3 3.79702 1.7 0 0 500
B72-3 3.918905 1.5 0 0 500
B72-4 3.914148 1.5 0 0 500
B23-2 3.902604 1.5 0 0 500
B23-3 3.884332 1.5 0 0 500
B100-2 3.760078 1.7 0 0 500
A3 3.712051 1.801306 0 0 500
B23-4 3.846019 1.5 0 0 500
B1-2 3.767379 1.7 0 0 500
B23-5 3.787148 1.5 0 0 500
B4-3 4.265805 1.5 0 0 500
B27-3 4.272206 1.5 0 0 500
B4-2 4.25938 1.5 0 0 500
B27-2 4.264424 1.5 0 0 500
A6 4.243989 1.5 0 0 500
B2-5 4.199972 1.5 0 0 500
B2-4 3.90715 1.7 0 0 500
B2-3 3.867998 1.7 0 0 500
B2-2 3.816354 1.7 0 0 500
B87-3 4.105311 1.5 0 0 500
B60-4 4.086317 1.5 0 0 500
B87-2 4.098276 1.5 0 0 500
A71 4.082909 1.5 0 0 500
B85-4 4.073704 1.5 0 0 500
B85-3 4.032685 1.5 0 0 500
B85-2 3.973852 1.5 0 0 500
A7 3.895205 1.5 0 0 500
B83-2 3.856453 1.5 0 0 500
B3-2 3.802821 1.5 0 0 500
B31-3 3.779569 1.5 0 0 500
B3-3 3.798818 1.5 0 0 500
B3-4 3.782999 1.5 0 0 500
B31-2 3.775499 1.5 0 0 500
A8 3.766089 1.51622 0 0 500
B43-2 3.759124 1.5 0 0 500
B26-3 4.519485 1.5 0 0 500
B25-4 4.488166 1.5 0 0 500
B25-5 4.478618 1.5 0 0 500
B65-6 4.474147 1.5 0 0 500
B26-2 4.504792 1.5 0 0 500
A17 4.473281 1.5 0 0 500
B4-4 4.290168 1.5 0 0 500
B10-2 4.163044 1.7 0 0 500
B4-5 4.283727 1.5 0 0 500
B5-3 4.260456 1.5 0 0 500
B10-3 4.11805 1.7 0 0 500
B5-2 4.254046 1.5 0 0 500
B10-4 4.05734 1.7 0 0 500
B4-6 4.26379 1.5 0 0 500
A9 3.838227 1.9 0 0 500
B13-2 3.773399 1.9 0 0 500
B24-4 4.436119 1.5 0 0 500
B25-3 4.503692 1.5 0 0 500
B25-2 4.482324 1.5 0 0 500
B24-5 4.421111 1.5 0 0 500
A36 4.211667 1.7 0 0 500
B45-2 3.933773 1.9 0 0 500
B45-3 3.898244 1.9 0 0 500
B5-4 4.250366 1.5 0 0 500
B66-2 4.244702 1.5 0 0 500
B5-5 4.245501 1.5 0 0 500
B45-4 3.854852 1.9 0 0 500
A10 3.840921 1.9 0 0 500
B55-2 3.773415 1.9 0 0 500
B8-2 4.131658 1.5 0 0 500
A12 4.072694 1.5 0 0 500
B6-3 4.072605 1.5 0 0 500
B8-3 4.127685 1.5 0 0 500
B8-4 4.106492 1.5 0 0 500
B6-2 4.068409 1.5 0 0 500
A11 3.850953 1.7 0 0 500
B46-2 3.790079 1.7 0 0 500
B7-5 4.207316 1.5 0 0 500
B7-4 4.1861 1.5 0 0 500
B7-3 4.11779 1.5 0 0 500
B7-2 3.801261 1.7 0 0 500
B73-5 4.134656 1.5 0 0 500
B73-4 4.133061 1.5 0 0 500
B73-3 4.123655 1.5 0 0 500
B73-2 4.092987 1.5 0 0 500
B7-6 4.020005 1.5 0 0 500
A14 3.819268 1.7 0 0 500
B29-2 3.797241 1.7 0 0 500
B94-6 4.504898 1.5 0 0 500
B94-5 4.487448 1.5 0 0 500
B94-4 4.19109 1.7 0 0 500
B94-3 3.918324 1.9 0 0 500
B94-2 3.876677 1.9 0 0 500
A15 3.828735 1.9 0 0 500
B11-2 3.779582 1.9 0 0 500
B127-7 4.303171 1.5 0 0 500
B127-6 4.299625 1.5 0 0 500
B127-5 4.279427 1.5 0 0 500
B127-4 4.222222 1.5 0 0 500
B127-3 3.924125 1.7 0 0 500
B127-2 3.883834 1.7 0 0 500
B9-2 4.038042 1.5 0 0 500
A16 3.837996 1.7 0 0 500
B89-2 3.80572 1.7 0 0 500
B65-5 4.504661 1.5 0 0 500
B65-4 4.492649 1.5 0 0 500
B65-3 4.226036 1.7 0 0 500
B21-5 4.328549 1.5 0 0 500
B65-2 4.183167 1.7 0 0 500
B22-2 4.333332 1.5 0 0 500
A20 4.128501 1.7 0 0 500
B12-4 4.113312 1.7 0 0 500
B12-3 3.8336 1.9 0 0 500
B12-2 3.796473 1.9 0 0 500
B14-8 4.413923 1.5 0 0 500
B14-7 4.411948 1.5 0 0 500
B14-6 4.394185 1.5 0 0 500
B14-5 4.128458 1.7 0 0 500
B14-4 3.87946 1.9 0 0 500
B14-3 3.846237 1.9 0 0 500
B14-2 3.800991 1.9 0 0 500
B98-6 4.045094 1.5 0 0 500
B98-5 4.041497 1.5 0 0 500
B15-4 3.95286 1.5 0 0 500
B98-4 4.017483 1.5 0 0 500
B15-3 3.941222 1.5 0 0 500
B98-3 3.744592 1.7 0 0 500
B15-2 3.905919 1.5 0 0 500
B98-2 3.703757 1.7 0 0 500
B16-4 3.849807 1.5 0 0 500
B16-3 3.831557 1.5 0 0 500
A23 3.652407 2.055511 0 0 500
B75-2 3.782635 1.9 0 0 500
B16-2 3.801001 1.5 0 0 500
B99-6 4.411557 1.5 0 0 500
B99-5 4.407889 1.5 0 0 500
B99-4 4.381289 1.5 0 0 500
B99-3 4.100534 1.7 0 0 500
B15-5 4.212404 1.5 0 0 500
B15-6 4.206779 1.5 0 0 500
B99-2 4.056541 1.7 0 0 500
B72-2 4.204944 1.5 0 0 500
A24 3.801576 1.9 0 0 500
B71-2 3.789282 1.9 0 0 500
B92-6 4.534003 1.5 0 0 500
B92-5 4.513403 1.5 0 0 500
B92-4 4.245479 1.7 0 0 500
B92-3 4.201037 1.7 0 0 500
B92-2 3.930616 1.9 0 0 500
A26 3.898314 1.9 0 0 500
B17-2 3.865629 1.9 0 0 500
B17-3 3.827565 1.9 0 0 500
B17-4 3.780092 1.9 0 0 500
A50 3.791616 1.5 0 0 500
B38-2 3.791219 1.5 0 0 500
B33-2 3.845742 1.5 0 0 500
A44 3.791174 1.5 0 0 500
B34-2 3.78961 1.5 0 0 500
B33-3 3.843916 1.5 0 0 500
B34-3 3.786335 1.5 0 0 500
A28 3.842079 1.5 0 0 500
B18-2 3.821939 1.5 0 0 500
B34-4 3.781133 1.5 0 0 500
A45 3.781014 1.5 0 0 500
B18-3 3.787396 1.5 0 0 500
B62-2 3.769709 1.5 0 0 500
A29 3.774906 1.506419 0 0 500
B20-5 3.838416 1.5 0 0 500
B20-4 3.83772 1.5 0 0 500
B20-3 3.830111 1.5 0 0 500
B20-2 3.801635 1.5 0 0 500
B21-4 4.436794 1.5 0 0 500
B21-3 4.430383 1.5 0 0 500
B21-2 4.397146 1.5 0 0 500
B30-2 4.332358 1.5 0 0 500
A32 4.117535 1.7 0 0 500
B47-4 4.103906 1.7 0 0 500
B47-3 3.826939 1.9 0 0 500
B47-2 3.791851 1.9 0 0 500
B22-3 4.432592 1.5 0 0 500
B22-4 4.415459 1.5 0 0 500
B22-5 4.145283 1.7 0 0 500
B22-6 4.101616 1.7 0 0 500
A33 4.09741 1.7 0 0 500
B28-2 3.828875 1.9 0 0 500
B28-3 3.797403 1.9 0 0 500
B28-4 3.759025 1.9 0 0 500
B24-3 4.318226 1.5 0 0 500
B86-2 4.278731 1.5 0 0 500
B24-2 4.305531 1.5 0 0 500
A35 4.27678 1.5 0 0 500
B84-4 4.26138 1.5 0 0 500
B66-3 4.079946 1.5 0 0 500
B84-3 4.208741 1.5 0 0 500
B66-4 4.073514 1.5 0 0 500
B66-5 4.05595 1.5 0 0 500
B84-2 4.13355 1.5 0 0 500
A74 3.842058 1.7 0 0 500
B81-2 3.819027 1.7 0 0 500
B26-4 4.527303 1.5 0 0 500
B26-5 4.504956 1.5 0 0 500
B27-4 4.404923 1.5 0 0 500
B26-6 4.226617 1.7 0 0 500
A37 4.204766 1.7 0 0 500
B70-2 3.944816 1.9 0 0 500
B70-3 3.910399 1.9 0 0 500
B70-4 3.860605 1.9 0 0 500
B70-5 3.798049 1.9 0 0 500
B86-3 4.308257 1.5 0 0 500
B86-4 4.303072 1.5 0 0 500
B86-5 4.279749 1.5 0 0 500
B30-3 4.119264 1.5 0 0 500
B86-6 4.225328 1.5 0 0 500
B30-4 4.108482 1.5 0 0 500
B86-7 4.144956 1.5 0 0 500
A40 3.896518 1.7 0 0 500
B88-2 3.84007 1.7 0 0 500
B88-3 3.775805 1.7 0 0 500
B32-4 4.052546 1.5 0 0 500
B32-3 4.045248 1.5 0 0 500
B60-3 4.032398 1.5 0 0 500
B60-2 4.018725 1.5 0 0 500
B32-2 4.022941 1.5 0 0 500
B31-4 3.989332 1.5 0 0 500
A41 3.788857 1.7 0 0 500
B32-5 3.840992 1.5 0 0 500
B51-3 3.815755 1.5 0 0 500
B32-6 3.833485 1.5 0 0 500
B51-4 3.807107 1.5 0 0 500
B32-7 3.810866 1.5 0 0 500
B51-5 3.78529 1.5 0 0 500
B32-8 3.776564 1.5 0 0 500
A42 3.775651 1.520824 0 0 500
B61-2 3.753912 1.5 0 0 500
B126-6 4.262149 1.5 0 0 500
B126-5 4.249943 1.5 0 0 500
B126-4 4.208306 1.5 0 0 500
B126-3 3.921771 1.7 0 0 500
B126-2 3.881848 1.7 0 0 500
A43 3.83429 1.7 0 0 500
B91-2 3.80344 1.7 0 0 500
B49-2 3.952918 1.5 0 0 500
B49-3 3.94807 1.5 0 0 500
B49-4 3.920766 1.5 0 0 500
B49-5 3.865866 1.5 0 0 500
A48 3.847367 1.591552 0 0 500
B36-4 3.845669 1.5 0 0 500
B37-2 3.913677 1.5 0 0 500
B36-3 3.830288 1.5 0 0 500
B37-3 3.870663 1.5 0 0 500
B36-2 3.801313 1.5 0 0 500
B37-4 3.800769 1.5 0 0 500
B67-4 4.784816 1.5 0 0 500
B67-5 4.742771 1.5 0 0 500
A52 4.445054 1.7 0 0 500
B40-2 4.442175 1.7 0 0 500
A51 4.396339 1.7 0 0 500
B77-8 4.370036 1.7 0 0 500
B77-7 4.315244 1.7 0 0 500
B77-6 4.043954 1.9 0 0 500
B77-5 4.005346 1.9 0 0 500
B77-4 3.953991 1.9 0 0 500
B77-3 3.892156 1.9 0 0 500
B77-2 3.823 1.9 0 0 500
B82-3 4.196304 1.5 0 0 500
B79-7 4.184969 1.5 0 0 500
B82-2 4.191282 1.5 0 0 500
B79-8 4.181373 1.5 0 0 500
A55 4.178114 1.5 0 0 500
B44-7 3.988085 1.5 0 0 500
B42-3 4.137001 1.5 0 0 500
B44-8 3.984477 1.5 0 0 500
B42-2 4.074208 1.5 0 0 500
A54 3.780361 1.7 0 0 500
B44-6 3.958948 1.5 0 0 500
B44-5 3.954557 1.5 0 0 500
B44-4 3.938129 1.5 0 0 500
B44-3 3.898709 1.5 0 0 500
B44-2 3.83678 1.5 0 0 500
B48-2 4.415111 1.5 0 0 500
B50-4 4.513664 1.5 0 0 500
B48-3 4.410276 1.5 0 0 500
B50-3 4.497789 1.5 0 0 500
B48-4 4.38557 1.5 0 0 500
B50-2 4.443768 1.5 0 0 500
A60 4.161215 1.7 0 0 500
B54-2 4.094386 1.7 0 0 500
B54-3 3.813896 1.9 0 0 500
B54-4 3.774523 1.9 0 0 500
B50-5 3.926563 1.5 0 0 500
B50-6 3.911287 1.5 0 0 500
B50-7 3.874486 1.5 0 0 500
A61 3.867056 1.534946 0 0 500
B58-2 3.855547 1.5 0 0 500
B57-4 3.895435 1.5 0 0 500
B58-3 3.830493 1.5 0 0 500
B57-3 3.876617 1.5 0 0 500
B57-2 3.830589 1.5 0 0 500
B58-4 3.778217 1.5 0 0 500
B87-4 4.30256 1.5 0 0 500
B87-5 4.294841 1.5 0 0 500
B87-6 4.269139 1.5 0 0 500
B51-2 4.178988 1.5 0 0 500
B87-7 4.220922 1.5 0 0 500
A62 4.17495 1.5 0 0 500
B90-2 4.074398 1.5 0 0 500
B90-3 3.7561 1.7 0 0 500
B53-4 3.823773 1.5 0 0 500
B53-3 3.820536 1.5 0 0 500
B53-2 3.798595 1.5 0 0 500
B113-2 5.003247 1.5 0 0 500
B125-8 5.093804 1.5 0 0 500
A115 5.00063 1.5 0 0 500
B125-7 5.086891 1.5 0 0 500
B125-6 5.064573 1.5 0 0 500
B112-2 4.967818 1.5 0 0 500
B112-3 4.677232 1.7 0 0 500
B125-5 5.019732 1.5 0 0 500
B125-4 4.945621 1.5 0 0 500
B112-4 4.626176 1.7 0 0 500
B125-3 4.635841 1.7 0 0 500
B112-5 4.349818 1.9 0 0 500
B125-2 4.589727 1.7 0 0 500
B119-10 4.359188 1.7 0 0 500
B119-9 4.321912 1.7 0 0 500
B112-6 4.313147 1.9 0 0 500
B119-11 4.659879 1.5 0 0 500
B119-8 4.273084 1.7 0 0 500
A120 4.530201 1.7 0 0 500
B112-7 4.272768 1.9 0 0 500
B119-7 4.211729 1.7 0 0 500
A112 4.269401 2.026913 0 0 500
B110-5 4.67023 1.5 0 0 500
B109-5 4.351142 1.9 0 0 500
B119-6 3.938443 1.9 0 0 500
B110-4 4.651159 1.5 0 0 500
B109-4 4.287808 1.9 0 0 500
B119-5 3.906599 1.9 0 0 500
B109-3 4.060864 2.05 0 0 500
B119-4 3.871595 1.9 0 0 500
B110-3 4.38826 1.7 0 0 500
B110-2 4.350899 1.7 0 0 500
B109-2 4.009376 2.05 0 0 500
B119-3 3.834068 1.9 0 0 500
B119-2 3.794722 1.9 0 0 500
A77 3.801597 2.2 0 0 500
B74-2 4.128156 1.5 0 0 500
B74-3 4.110856 1.5 0 0 500
B74-4 3.841922 1.7 0 0 500
B74-5 3.801656 1.7 0 0 500
B121-3 4.911465 1.5 0 0 500
B121-4 4.906031 1.5 0 0 500
B121-5 4.883242 1.5 0 0 500
B110-6 4.847028 1.5 0 0 500
B121-6 4.623748 1.7 0 0 500
B121-7 4.58669 1.7 0 0 500
B110-7 4.825481 1.5 0 0 500
B110-8 4.544572 1.7 0 0 500
B121-8 4.321233 1.9 0 0 500
A123 4.305585 1.9 0 0 500
B110-9 4.289575 1.9 0 0 500
B120-4 4.289817 1.9 0 0 500
B110-10 4.254051 1.9 0 0 500
B110-11 4.206217 1.9 0 0 500
B120-3 4.235892 1.9 0 0 500
B110-12 4.146874 1.9 0 0 500
B120-2 4.171803 1.9 0 0 500
A82 3.802983 2.2 0 0 500
B118-2 4.419736 1.5 0 0 500
B118-3 4.417252 1.5 0 0 500
B118-4 4.409495 1.5 0 0 500
B118-5 4.394092 1.5 0 0 500
B118-6 4.368691 1.5 0 0 500
B118-7 4.330907 1.5 0 0 500
B118-8 4.278211 1.5 0 0 500
B118-9 4.208042 1.5 0 0 500
A118 4.205165 1.5 0 0 500
B116-3 4.148329 1.5 0 0 500
B116-2 3.841869 1.7 0 0 500
A85 3.80208 1.7 0 0 500
B78-2 3.757294 1.7 0 0 500
B79-6 3.937978 1.5 0 0 500
B79-5 3.932545 1.5 0 0 500
B79-4 3.915802 1.5 0 0 500
B79-3 3.883253 1.5 0 0 500
B79-2 3.831241 1.5 0 0 500
B80-2 4.241865 1.5 0 0 500
B80-3 4.239884 1.5 0 0 500
B80-4 4.230371 1.5 0 0 500
B80-5 4.201836 1.5 0 0 500
B80-6 4.141182 1.5 0 0 500
B80-7 3.838708 1.7 0 0 500
B80-8 3.79419 1.7 0 0 500
B82-4 3.914497 1.5 0 0 500
B82-5 3.909297 1.5 0 0 500
B82-6 3.892581 1.5 0 0 500
B82-7 3.858482 1.5 0 0 500
B82-8 3.805013 1.5 0 0 500
B92-7 4.561202 1.5 0 0 500
B92-8 4.533462 1.5 0 0 500
B92-9 4.244782 1.7 0 0 500
B92-10 4.193471 1.7 0 0 500
B92-11 3.916788 1.9 0 0 500
B92-12 3.88195 1.9 0 0 500
B92-13 3.842767 1.9 0 0 500
B92-14 3.798112 1.9 0 0 500
B93-3 3.843079 1.5 0 0 500
B93-2 3.826667 1.5 0 0 500
B93-4 3.789778 1.5 0 0 500
B93-5 3.777391 1.5 0 0 500
B95-5 4.53878 1.5 0 0 500
B97-3 4.511575 1.5 0 0 500
B95-6 4.515613 1.5 0 0 500
B97-2 4.491958 1.5 0 0 500
B94-7 4.456325 1.5 0 0 500
B95-7 4.465435 1.5 0 0 500
A99 4.253078 1.7 0 0 500
B96-2 3.980894 1.9 0 0 500
B96-3 3.947914 1.9 0 0 500
B96-4 3.901435 1.9 0 0 500
B96-5 3.838066 1.9 0 0 500
B96-6 3.765512 1.9 0 0 500
B95-4 4.564774 1.5 0 0 500
B95-3 4.531127 1.5 0 0 500
B95-2 4.234353 1.7 0 0 500
A100 4.192872 1.7 0 0 500
B128-2 4.147137 1.7 0 0 500
B128-3 4.094841 1.7 0 0 500
B128-4 3.829262 1.9 0 0 500
B128-5 3.796559 1.9 0 0 500
B128-6 3.758555 1.9 0 0 500
B97-4 4.608513 1.5 0 0 500
B97-5 4.368002 1.7 0 0 500
B97-6 4.120581 1.9 0 0 500
B97-7 4.082116 1.9 0 0 500
B97-8 3.868716 2.05 0 0 500
B97-9 3.822524 2.05 0 0 500
B97-10 3.769764 2.05 0 0 500
B105-3 4.485929 1.5 0 0 500
B105-4 4.46646 1.5 0 0 500
B105-5 4.180939 1.7 0 0 500
B105-6 4.136279 1.7 0 0 500
A103 4.108833 1.7 0 0 500
B103-2 4.055015 1.7 0 0 500
B103-3 3.788176 1.9 0 0 500
B103-4 3.756364 1.9 0 0 500
B107-4 4.432038 1.5 0 0 500
B105-2 4.435204 1.5 0 0 500
A104 4.43034 1.5 0 0 500
B104-2 4.413661 1.5 0 0 500
B104-3 4.381272 1.5 0 0 500
B104-4 4.103369 1.7 0 0 500
B104-5 4.054799 1.7 0 0 500
B104-6 3.781413 1.9 0 0 500
B107-3 4.25253 1.5 0 0 500
B107-2 4.240102 1.5 0 0 500
B100-6 4.215336 1.5 0 0 500
A105 4.212041 1.5 0 0 500
B101-5 4.210018 1.5 0 0 500
B101-4 4.150455 1.5 0 0 500
B101-3 3.860964 1.7 0 0 500
B101-2 3.813478 1.7 0 0 500
B102-2 4.183029 1.5 0 0 500
B102-3 4.178205 1.5 0 0 500
B102-4 4.147734 1.5 0 0 500
B102-5 3.861637 1.7 0 0 500
B102-6 3.815603 1.7 0 0 500
B102-7 3.756543 1.7 0 0 500
B106-2 4.159153 1.5 0 0 500
B106-3 4.154307 1.5 0 0 500
B106-4 4.123557 1.5 0 0 500
B106-5 3.843688 1.7 0 0 500
B106-6 3.800147 1.7 0 0 500
B108-3 4.955797 1.5 0 0 500
B108-4 4.936227 1.5 0 0 500
B108-5 4.429252 1.9 0 0 500
B108-6 4.394809 1.9 0 0 500
B108-7 4.178917 2.05 0 0 500
B108-8 3.972122 2.2 0 0 500
B108-9 3.925551 2.2 0 0 500
B108-10 3.867394 2.2 0 0 500
B108-11 3.80222 2.2 0 0 500
A116 5.021223 1.5 0 0 500
B114-2 5.019141 1.5 0 0 500
A117 4.985891 1.5 0 0 500
B115-6 4.983477 1.5 0 0 500
B115-5 4.683584 1.7 0 0 500
B115-4 4.420853 1.9 0 0 500
B115-3 4.383499 1.9 0 0 500
B115-2 4.332017 1.9 0 0 500
A113 4.267405 1.9 0 0 500
B111-2 4.042772 2.05 0 0 500
B111-3 3.998328 2.05 0 0 500
B111-4 3.951425 2.05 0 0 500
B121-2 4.471127 1.5 0 0 500
A114 3.918694 2.05 0 0 500
B122-2 3.86643 2.05 0 0 500
A121 3.842926 2.05 0 0 500
B123-2 3.789679 2.05 0 0 500
B117-10 4.402388 1.5 0 0 500
B117-9 4.397366 1.5 0 0 500
B117-8 4.379108 1.5 0 0 500
B117-7 4.340584 1.5 0 0 500
B117-6 4.275303 1.5 0 0 500
B117-5 3.977118 1.7 0 0 500
B117-4 3.935448 1.7 0 0 500
B117-3 3.88179 1.7 0 0 500
B117-2 3.819554 1.7 0 0 500
B125-9 4.832225 1.5 0 0 500
B125-10 4.825239 1.5 0 0 500
B125-11 4.80195 1.5 0 0 500
B125-12 4.754404 1.5 0 0 500
B125-13 4.67521 1.5 0 0 500
B125-14 4.362751 1.7 0 0 500
B125-15 4.320935 1.7 0 0 500
B125-16 4.272914 1.7 0 0 500
B125-17 4.218883 1.7 0 0 500
B125-18 4.159293 1.7 0 0 500
B125-19 4.094398 1.7 0 0 500
B125-20 3.82294 1.9 0 0 500
B125-21 3.790831 1.9 0 0 500
B126-7 4.260621 1.5 0 0 500
B126-8 4.248401 1.5 0 0 500
B126-9 4.206703 1.5 0 0 500
B126-10 3.919645 1.7 0 0 500
B126-11 3.876826 1.7 0 0 500
B126-12 3.821486 1.7 0 0 500
B126-13 3.758696 1.7 0 0 500

;;____________________________________________________________________________________________________
[OUTFALLS]
O33 3.75 FREE NO
O27 3.75 FREE NO
O12 3.75 FREE NO
O1 3.75 FREE NO
O2 3.75 FREE NO
O46 3.75 FREE NO
O19 3.75 FREE NO
O15 3.75 FREE NO
O6 3.75 FREE NO
O26 3.75 FREE NO
O21 3.75 FREE NO
O3 3.75 FREE NO
O14 3.75 FREE NO
O4 3.75 FREE NO
O48 3.75 FREE NO
O5 3.75 FREE NO
O7 3.75 FREE NO
O8 3.75 FREE NO
O38 3.75 FREE NO
O36 3.75 FREE NO
O9 3.75 FREE NO
O10 3.75 FREE NO
O32 3.75 FREE NO
O11 3.75 FREE NO
O22 3.75 FREE NO
O13 3.75 FREE NO
O44 3.75 FREE NO
O35 3.75 FREE NO
O47 3.75 FREE NO
O30 3.75 FREE NO
O31 3.75 FREE NO
O23 3.75 FREE NO
O50 3.75 FREE NO
O16 3.75 FREE NO
O17 3.75 FREE NO
O40 3.75 FREE NO
O18 3.75 FREE NO
O20 3.75 FREE NO
O25 3.75 FREE NO
O29 3.75 FREE NO
O28 3.75 FREE NO
O49 3.75 FREE NO
O24 3.75 FREE NO
O34 3.75 FREE NO
O63 3.75 FREE NO
O37 3.75 FREE NO
O39 3.75 FREE NO
O41 3.75 FREE NO
O42 3.75 FREE NO
O43 3.75 FREE NO
O45 3.75 FREE NO
O51 3.75 FREE NO
O52 3.75 FREE NO
O53 3.75 FREE NO
O54 3.75 FREE NO
O67 3.75 FREE NO
O55 3.75 FREE NO
O58 3.75 FREE NO
O59 3.75 FREE NO
O56 3.75 FREE NO
O57 3.75 FREE NO
O60 3.75 FREE NO
O61 3.75 FREE NO
O64 3.75 FREE NO
O62 3.75 FREE NO
O65 3.75 FREE NO
O66 3.75 FREE NO

;;____________________________________________________________________________________________________
[CONDUITS]
B0-4-B0-3 B0-4 B0-3 50 0.022 0 0 0
B0-3-B0-2 B0-3 B0-2 50 0.022 0 0 0
B0-2-A1 B0-2 A1 50 0.022 0 0.2 0
B108-2-A1 B108-2 A1 50 0.022 0 0.2 0
A1-B68-2 A1 B68-2 50 0.022 0 0 0
B68-2-B68-3 B68-2 B68-3 50 0.022 0 0.2 0
B68-3-B68-4 B68-3 B68-4 50 0.022 0 0 0
B68-4-B68-5 B68-4 B68-5 50 0.022 0 0.15 0
B68-5-B68-6 B68-5 B68-6 50 0.022 0 4.440892E-16 0
B68-6-B68-7 B68-6 B68-7 50 0.022 0 4.440892E-16 0
B68-7-B68-8 B68-7 B68-8 50 0.022 0 0 0
B68-8-O33 B68-8 O33 8.618139 0.022 0 0 0
B67-3-B67-2 B67-3 B67-2 50 0.022 0 0.2 0
B0-5-A2 B0-5 A2 27.3015 0.022 0 0.4 0
B67-2-A2 B67-2 A2 50 0.022 0 0.2 0
A2-B56-8 A2 B56-8 32.69595 0.022 0 0 0
B56-8-B56-7 B56-8 B56-7 50 0.022 0 0 0
B56-7-B56-6 B56-7 B56-6 50 0.022 0 0 0
B56-6-B56-5 B56-6 B56-5 50 0.022 0 0.15 0
B56-5-B56-4 B56-5 B56-4 50 0.022 0 0 0
B56-4-B56-3 B56-4 B56-3 50 0.022 8.881784E-16 0 0
B56-3-B56-2 B56-3 B56-2 50 0.022 0 0.15 0
B56-2-O27 B56-2 O27 50 0.022 0 0 0
B100-5-B100-4 B100-5 B100-4 50 0.022 0 0 0
B100-4-B100-3 B100-4 B100-3 50 0.022 0 0.2 0
B100-3-B100-2 B100-3 B100-2 50 0.022 0 0 0
B72-3-B72-4 B72-3 B72-4 50 0.022 0 0 0
B72-4-A3 B72-4 A3 14.55643 0.022 0 0.2 0
B23-2-B23-3 B23-2 B23-3 50 0.022 0 0 0
B23-3-B23-4 B23-3 B23-4 50 0.022 0 0 0
B100-2-A3 B100-2 A3 50 0.022 0 0 0
A3-B23-2 A3 B23-2 50 0.022 0.2 0 0
A3-B1-2 A3 B1-2 50 0.022 0.1013065 4.440892E-16 0
B23-4-B23-5 B23-4 B23-5 50 0.022 0 0 0
B1-2-O1 B1-2 O1 17.05348 0.022 0 0 0
B23-5-O12 B23-5 O12 25.11961 0.022 4.440892E-16 0 0
B4-3-B4-2 B4-3 B4-2 50 0.022 0 0 0
B27-3-B27-2 B27-3 B27-2 50 0.022 0 0 0
B4-2-A6 B4-2 A6 50 0.022 0 0 0
B27-2-A6 B27-2 A6 50 0.022 0 0 0
A6-B2-5 A6 B2-5 28.68063 0.022 0 0 0
B2-5-B2-4 B2-5 B2-4 50 0.022 0 0.2 0
B2-4-B2-3 B2-4 B2-3 50 0.022 0 0 0
B2-3-B2-2 B2-3 B2-2 50 0.022 0 0 0
B2-2-O2 B2-2 O2 50 0.022 0 0 0
B87-3-B87-2 B87-3 B87-2 50 0.022 0 0 0
B60-4-A71 B60-4 A71 45.08426 0.022 0 0 0
B87-2-A71 B87-2 A71 50 0.022 0 0 0
A71-B85-4 A71 B85-4 13.33647 0.022 0 0 0
B85-4-B85-3 B85-4 B85-3 50 0.022 0 0 0
B85-3-B85-2 B85-3 B85-2 50 0.022 0 0 0
B85-2-A7 B85-2 A7 50 0.022 0 0 0
A7-B83-2 A7 B83-2 22.53736 0.022 0 0 0
B83-2-O46 B83-2 O46 50 0.022 0 0 0
B3-2-B3-3 B3-2 B3-3 50 0.022 0 0 0
B31-3-B31-2 B31-3 B31-2 50 0.022 0 0 0
B3-3-B3-4 B3-3 B3-4 50 0.022 0 0 0
B3-4-A8 B3-4 A8 34.79741 0.022 0 0 0
B31-2-A8 B31-2 A8 50 0.022 0 0 0
A8-B43-2 A8 B43-2 50 0.022 0 0 0
A8-O15 A8 O15 42.60199 0.022 0.01622013 0 0
B43-2-O19 B43-2 O19 37.77506 0.022 4.440892E-16 0 0
B26-3-B26-2 B26-3 B26-2 50 0.022 0 0 0
B25-4-B25-5 B25-4 B25-5 50 0.022 0 0 0
B25-5-A17 B25-5 A17 19.97073 0.022 0 0 0
B65-6-A17 B65-6 A17 28.38039 0.022 0 0 0
B26-2-A17 B26-2 A17 50 0.022 0 0 0
A17-B10-2 A17 B10-2 50 0.022 0 0.2 0
B4-4-B4-5 B4-4 B4-5 50 0.022 0 0 0
B10-2-B10-3 B10-2 B10-3 50 0.022 0 0 0
B4-5-B4-6 B4-5 B4-6 50 0.022 0 0 0
B5-3-B5-2 B5-3 B5-2 50 0.022 0 0 0
B10-3-B10-4 B10-3 B10-4 50 0.022 0 0 0
B5-2-A9 B5-2 A9 50 0.022 0 0.4 0
B10-4-A9 B10-4 A9 15.04066 0.022 0 0.2 0
B4-6-A9 B4-6 A9 42.19413 0.022 0 0.4 0
A9-B13-2 A9 B13-2 50 0.022 0 0 0
B13-2-O6 B13-2 O6 16.6334 0.022 0 0 0
B24-4-B24-5 B24-4 B24-5 50 0.022 0 0 0
B25-3-B25-2 B25-3 B25-2 50 0.022 0 0 0
B25-2-A36 B25-2 A36 50 0.022 0 0.2 0
B24-5-A36 B24-5 A36 13.86915 0.022 0 0.2 0
A36-B45-2 A36 B45-2 50 0.022 0 0.2 0
B45-2-B45-3 B45-2 B45-3 50 0.022 0 0 0
B45-3-B45-4 B45-3 B45-4 50 0.022 0 0 0
B5-4-B5-5 B5-4 B5-5 50 0.022 0 0 0
B66-2-A10 B66-2 A10 50 0.022 0 0.4 0
B5-5-A10 B5-5 A10 27.20085 0.022 0 0.4 0
B45-4-A10 B45-4 A10 15.82175 0.022 0 0 0
A10-B55-2 A10 B55-2 50 0.022 0 0 0
B55-2-O26 B55-2 O26 16.52071 0.022 0 0 0
B8-2-B8-3 B8-2 B8-3 50 0.022 0 0 0
A12-B6-3 A12 B6-3 5.382599 0.022 0 0 0
B6-3-B6-2 B6-3 B6-2 50 0.022 8.881784E-16 0 0
B8-3-B8-4 B8-3 B8-4 50 0.022 0 0 0
B8-4-A11 B8-4 A11 46.19833 0.022 0 0.2 0
B6-2-A11 B6-2 A11 50 0.022 0 0.2 0
A11-B46-2 A11 B46-2 50 0.022 0 4.440892E-16 0
B46-2-O21 B46-2 O21 29.83663 0.022 0 0 0
B7-5-B7-4 B7-5 B7-4 50 0.022 0 0 0
B7-4-B7-3 B7-4 B7-3 50 0.022 0 0 0
B7-3-B7-2 B7-3 B7-2 50 0.022 0 0.2 0
B7-2-O3 B7-2 O3 50 0.022 0 0 0
B73-5-B73-4 B73-5 B73-4 50 0.022 0 0 0
B73-4-B73-3 B73-4 B73-3 50 0.022 0 0 0
B73-3-B73-2 B73-3 B73-2 50 0.022 0 0 0
B73-2-A14 B73-2 A14 50 0.022 0 0.2 0
B7-6-A14 B7-6 A14 6.607995 0.022 0 0.2 0
A14-B29-2 A14 B29-2 26.02029 0.022 0 0 0
B29-2-O14 B29-2 O14 50 0.022 0 0 0
B94-6-B94-5 B94-6 B94-5 50 0.022 0 0 0
B94-5-B94-4 B94-5 B94-4 50 0.022 8.881784E-16 0.2 0
B94-4-B94-3 B94-4 B94-3 50 0.022 0 0.2 0
B94-3-B94-2 B94-3 B94-2 50 0.022 0 0 0
B94-2-A15 B94-2 A15 50 0.022 0 0 0
A15-B11-2 A15 B11-2 50 0.022 4.440892E-16 0 0
B11-2-O4 B11-2 O4 28.02002 0.022 4.440892E-16 0 0
B127-7-B127-6 B127-7 B127-6 50 0.022 0 0 0
B127-6-B127-5 B127-6 B127-5 50 0.022 0 0 0
B127-5-B127-4 B127-5 B127-4 50 0.022 0 0 0
B127-4-B127-3 B127-4 B127-3 50 0.022 0 0.2 0
B127-3-B127-2 B127-3 B127-2 50 0.022 0 0 0
B127-2-A16 B127-2 A16 50 0.022 0 0 0
B9-2-A16 B9-2 A16 6.611065 0.022 0 0.2 0
A16-B89-2 A16 B89-2 32.41211 0.022 0 0 0
B89-2-O48 B89-2 O48 50 0.022 0 0 0
B65-5-B65-4 B65-5 B65-4 50 0.022 0 0 0
B65-4-B65-3 B65-4 B65-3 50 0.022 0 0.2 0
B65-3-B65-2 B65-3 B65-2 50 0.022 0 0 0
B21-5-A20 B21-5 A20 7.77541 0.022 0 0.2 0
B65-2-A20 B65-2 A20 50 0.022 0 0 0
B22-2-A20 B22-2 A20 50 0.022 0 0.2 0
A20-B12-4 A20 B12-4 10.13345 0.022 0 0 0
B12-4-B12-3 B12-4 B12-3 50 0.022 0 0.2 0
B12-3-B12-2 B12-3 B12-2 50 0.022 0 0 0
B12-2-O5 B12-2 O5 50 0.022 0 0 0
B14-8-B14-7 B14-8 B14-7 50 0.022 0 0 0
B14-7-B14-6 B14-7 B14-6 50 0.022 0 0 0
B14-6-B14-5 B14-6 B14-5 50 0.022 0 0.2 0
B14-5-B14-4 B14-5 B14-4 50 0.022 0 0.2 0
B14-4-B14-3 B14-4 B14-3 50 0.022 0 0 0
B14-3-B14-2 B14-3 B14-2 50 0.022 0 0 0
B14-2-O7 B14-2 O7 50 0.022 0 0 0
B98-6-B98-5 B98-6 B98-5 50 0.022 0 0 0
B98-5-B98-4 B98-5 B98-4 50 0.022 0 0 0
B15-4-B15-3 B15-4 B15-3 50 0.022 0 0 0
B98-4-B98-3 B98-4 B98-3 50 0.022 0 0.2 0
B15-3-B15-2 B15-3 B15-2 50 0.022 0 0 0
B98-3-B98-2 B98-3 B98-2 50 0.022 0 0 0
B15-2-A23 B15-2 A23 50 0.022 0 0.2 0
B98-2-A23 B98-2 A23 50 0.022 0 0 0
B16-4-B16-3 B16-4 B16-3 50 0.022 0 0 0
B16-3-B16-2 B16-3 B16-2 50 0.022 0 4.440892E-16 0
A23-B16-4 A23 B16-4 8.655204 0.022 0.2 0 0
A23-B75-2 A23 B75-2 17.28844 0.022 0.3555115 0.2 0
B75-2-O38 B75-2 O38 50 0.022 0 0 0
B16-2-O8 B16-2 O8 50 0.022 0 0 0
B99-6-B99-5 B99-6 B99-5 50 0.022 0 0 0
B99-5-B99-4 B99-5 B99-4 50 0.022 0 0 0
B99-4-B99-3 B99-4 B99-3 50 0.022 0 0.2 0
B99-3-B99-2 B99-3 B99-2 50 0.022 0 0 0
B15-5-B15-6 B15-5 B15-6 50 0.022 0 0 0
B15-6-A24 B15-6 A24 27.56364 0.022 0 0.4 0
B99-2-A24 B99-2 A24 50 0.022 0 0.2 0
B72-2-A24 B72-2 A24 50 0.022 0 0.4 0
A24-B71-2 A24 B71-2 17.14093 0.022 0 0 0
B71-2-O36 B71-2 O36 50 0.022 0 0 0
B92-6-B92-5 B92-6 B92-5 49.05418 0.022 0 0 0
B92-5-B92-4 B92-5 B92-4 50 0.022 0 0.2 0
B92-4-B92-3 B92-4 B92-3 50 0.022 0 0 0
B92-3-B92-2 B92-3 B92-2 50 0.022 0 0.2 0
B92-2-A26 B92-2 A26 50 0.022 0 0 0
A26-B17-2 A26 B17-2 50 0.022 0 0 0
B17-2-B17-3 B17-2 B17-3 50 0.022 0 0 0
B17-3-B17-4 B17-3 B17-4 50 0.022 0 4.440892E-16 0
B17-4-O9 B17-4 O9 28.99673 0.022 0 0 0
A50-B38-2 A50 B38-2 49.63622 0.022 0 0 0
B38-2-A44 B38-2 A44 3.100915 0.022 0 0 0
B33-2-B33-3 B33-2 B33-3 50 0.022 0 4.440892E-16 0
A44-B34-2 A44 B34-2 50 0.022 0 0 0
B34-2-B34-3 B34-2 B34-3 50 0.022 0 0 0
B33-3-A28 B33-3 A28 15.69105 0.022 0 0 0
B34-3-B34-4 B34-3 B34-4 50 0.022 0 0 0
A28-B18-2 A28 B18-2 50 0.022 0 0 0
B18-2-B18-3 B18-2 B18-3 50 0.022 0 0 0
B34-4-A45 B34-4 A45 1.135369 0.022 0 0 0
A45-B62-2 A45 B62-2 46.08348 0.022 0 0 0
B18-3-A29 B18-3 A29 15.34802 0.022 0 0 0
B62-2-O32 B62-2 O32 50 0.022 0 0 0
A29-O10 A29 O10 39.42164 0.022 0 0 0
A29-A45 A29 A45 7.879569 0.022 0.006419395 0 0
B20-5-B20-4 B20-5 B20-4 50 0.022 0 0 0
B20-4-B20-3 B20-4 B20-3 50 0.022 0 0 0
B20-3-B20-2 B20-3 B20-2 50 0.022 0 0 0
B20-2-O11 B20-2 O11 50 0.022 0 0 0
B21-4-B21-3 B21-4 B21-3 50 0.022 0 0 0
B21-3-B21-2 B21-3 B21-2 50 0.022 0 0 0
B21-2-A32 B21-2 A32 50 0.022 0 0.2 0
B30-2-A32 B30-2 A32 50 0.022 0 0.2 0
A32-B47-4 A32 B47-4 9.435666 0.022 0 0 0
B47-4-B47-3 B47-4 B47-3 50 0.022 0 0.2 0
B47-3-B47-2 B47-3 B47-2 50 0.022 0 0 0
B47-2-O22 B47-2 O22 50 0.022 0 0 0
B22-3-B22-4 B22-3 B22-4 50 0.022 0 0 0
B22-4-B22-5 B22-4 B22-5 50 0.022 0 0.2 0
B22-5-B22-6 B22-5 B22-6 50 0.022 0 0 0
B22-6-A33 B22-6 A33 3.889291 0.022 0 0 0
A33-B28-2 A33 B28-2 50 0.022 0 0.2 0
B28-2-B28-3 B28-2 B28-3 50 0.022 0 0 0
B28-3-B28-4 B28-3 B28-4 50 0.022 0 4.440892E-16 0
B28-4-O13 B28-4 O13 11.25913 0.022 0 0 0
B24-3-B24-2 B24-3 B24-2 50 0.022 0 0 0
B86-2-A35 B86-2 A35 50 0.022 0 0 0
B24-2-A35 B24-2 A35 50 0.022 0 0 0
A35-B84-4 A35 B84-4 17.7036 0.022 0 0 0
B84-4-B84-3 B84-4 B84-3 50 0.022 0 0 0
B66-3-B66-4 B66-3 B66-4 50 0.022 0 0 0
B84-3-B84-2 B84-3 B84-2 50 0.022 0 0 0
B66-4-B66-5 B66-4 B66-5 49.99994 0.022 0 0 0
B66-5-A74 B66-5 A74 29.52249 0.022 0 0.2 0
B84-2-A74 B84-2 A74 50 0.022 0 0.2 0
A74-B81-2 A74 B81-2 18.8284 0.022 0 0 0
B81-2-O44 B81-2 O44 50 0.022 0 0 0
B26-4-B26-5 B26-4 B26-5 50 0.022 0 0 0
B26-5-B26-6 B26-5 B26-6 50 0.022 0 0.2 0
B27-4-A37 B27-4 A37 14.42371 0.022 0 0.2 0
B26-6-A37 B26-6 A37 27.93713 0.022 0 0 0
A37-B70-2 A37 B70-2 50 0.022 0 0.2 0
B70-2-B70-3 B70-2 B70-3 50 0.022 0 0 0
B70-3-B70-4 B70-3 B70-4 50 0.022 0 0 0
B70-4-B70-5 B70-4 B70-5 50 0.022 0 0 0
B70-5-O35 B70-5 O35 35.20109 0.022 0 0 0
B86-3-B86-4 B86-3 B86-4 50 0.022 0 0 0
B86-4-B86-5 B86-4 B86-5 50 0.022 0 0 0
B86-5-B86-6 B86-5 B86-6 50 0.022 0 0 0
B30-3-B30-4 B30-3 B30-4 50 0.022 0 0 0
B86-6-B86-7 B86-6 B86-7 50 0.022 0 0 0
B30-4-A40 B30-4 A40 32.50911 0.022 0 0.2 0
B86-7-A40 B86-7 A40 26.82636 0.022 0 0.2 0
A40-B88-2 A40 B88-2 50 0.022 0 0 0
B88-2-B88-3 B88-2 B88-3 50 0.022 4.440892E-16 0 0
B88-3-O47 B88-3 O47 18.39162 0.022 4.440892E-16 0 0
B32-4-B32-3 B32-4 B32-3 50 0.022 0 0 0
B32-3-B32-2 B32-3 B32-2 50 0.022 0 0 0
B60-3-B60-2 B60-3 B60-2 50 0.022 0 0 0
B60-2-A41 B60-2 A41 50 0.022 0 0.2 0
B32-2-A41 B32-2 A41 50 0.022 0 0.2 0
B31-4-A41 B31-4 A41 26.28587 0.022 0 0.2 0
A41-O30 A41 O30 42.08807 0.022 0 0 0
B32-5-B32-6 B32-5 B32-6 50 0.022 0 0 0
B51-3-B51-4 B51-3 B51-4 50 0.022 0 0 0
B32-6-B32-7 B32-6 B32-7 50 0.022 0 0 0
B51-4-B51-5 B51-4 B51-5 50 0.022 0 0 0
B32-7-B32-8 B32-7 B32-8 50 0.022 0 0 0
B51-5-A42 B51-5 A42 17.76806 0.022 0 0 0
B32-8-A42 B32-8 A42 1.133847 0.022 0 0 0
A42-B61-2 A42 B61-2 50 0.022 0 4.440892E-16 0
A42-O23 A42 O23 47.50862 0.022 0.02082429 0 0
B61-2-O31 B61-2 O31 7.013815 0.022 0 0 0
B126-6-B126-5 B126-6 B126-5 50 0.022 0 0 0
B126-5-B126-4 B126-5 B126-4 50 0.022 0 0 0
B126-4-B126-3 B126-4 B126-3 50 0.022 0 0.2 0
B126-3-B126-2 B126-3 B126-2 50 0.022 0 0 0
B126-2-A43 B126-2 A43 50 0.022 0 0 0
A43-B91-2 A43 B91-2 30.87471 0.022 4.440892E-16 0 0
B91-2-O50 B91-2 O50 50 0.022 0 0 0
B49-2-B49-3 B49-2 B49-3 50 0.022 0 0 0
B49-3-B49-4 B49-3 B49-4 50 0.022 0 0 0
B49-4-B49-5 B49-4 B49-5 50 0.022 0 0 0
B49-5-A48 B49-5 A48 14.94931 0.022 0 0 0
A48-B36-4 A48 B36-4 7.564843 0.022 0 0 0
A48-B37-2 A48 B37-2 50 0.022 0.09155214 0 0
B36-4-B36-3 B36-4 B36-3 50 0.022 0 0 0
B37-2-B37-3 B37-2 B37-3 50 0.022 0 0 0
B36-3-B36-2 B36-3 B36-2 50 0.022 0 0 0
B37-3-B37-4 B37-3 B37-4 50 0.022 0 4.440892E-16 0
B36-2-O16 B36-2 O16 50 0.022 0 0 0
B37-4-O17 B37-4 O17 28.5013 0.022 0 0 0
B67-4-B67-5 B67-4 B67-5 50 0.022 0 0 0
B67-5-A52 B67-5 A52 45.64686 0.022 0 0.2 0
A52-B40-2 A52 B40-2 3.605649 0.022 0 0 0
B40-2-A51 B40-2 A51 50 0.022 0 0 0
A51-B77-8 A51 B77-8 27.08666 0.022 0 0 0
B77-8-B77-7 B77-8 B77-7 50 0.022 0 0 0
B77-7-B77-6 B77-7 B77-6 50 0.022 0 0.2 0
B77-6-B77-5 B77-6 B77-5 50 0.022 0 0 0
B77-5-B77-4 B77-5 B77-4 50 0.022 0 0 0
B77-4-B77-3 B77-4 B77-3 50 0.022 0 0 0
B77-3-B77-2 B77-3 B77-2 50 0.022 0 0 0
B77-2-O40 B77-2 O40 50 0.022 0 0 0
B82-3-B82-2 B82-3 B82-2 50 0.022 0 0 0
B79-7-B79-8 B79-7 B79-8 50 0.022 0 0 0
B82-2-A55 B82-2 A55 50 0.022 0 0 0
B79-8-A55 B79-8 A55 27.18229 0.022 0 0 0
A55-B42-3 A55 B42-3 50.01521 0.022 0 0 0
B44-7-B44-8 B44-7 B44-8 50 0.022 0 0 0
B42-3-B42-2 B42-3 B42-2 50 0.022 0 0 0
B44-8-A54 B44-8 A54 34.00982 0.022 0 0.2 0
B42-2-A54 B42-2 A54 50 0.022 0 0.2 0
A54-O18 A54 O18 30.15308 0.022 0 0 0
B44-6-B44-5 B44-6 B44-5 50 0.022 0 0 0
B44-5-B44-4 B44-5 B44-4 50 0.022 0 0 0
B44-4-B44-3 B44-4 B44-3 50 0.022 0 0 0
B44-3-B44-2 B44-3 B44-2 50 0.022 0 4.440892E-16 0
B44-2-O20 B44-2 O20 50 0.022 0 0 0
B48-2-B48-3 B48-2 B48-3 50 0.022 0 0 0
B50-4-B50-3 B50-4 B50-3 50 0.022 0 0 0
B48-3-B48-4 B48-3 B48-4 50 0.022 0 0 0
B50-3-B50-2 B50-3 B50-2 50 0.022 0 0 0
B48-4-A60 B48-4 A60 34.26693 0.022 0 0.2 0
B50-2-A60 B50-2 A60 50 0.022 0 0.2 0
A60-B54-2 A60 B54-2 50 0.022 0 0 0
B54-2-B54-3 B54-2 B54-3 50 0.022 0 0.2 0
B54-3-B54-4 B54-3 B54-4 50 0.022 0 0 0
B54-4-O25 B54-4 O25 28.64275 0.022 4.440892E-16 0 0
B50-5-B50-6 B50-5 B50-6 50 0.022 0 0 0