

;;____________________________________________________________________________________________________
[OPTIONS]
FLOW_UNITS           LPS
INFILTRATION         HORTON
FLOW_ROUTING         DYNWAVE
LINK_OFFSETS         DEPTH
MIN_SLOPE            0
ALLOW_PONDING        YES
SKIP_STEADY_STATE    NO
START_DATE           1/1/2002
START_TIME           00:00:00
REPORT_START_DATE    1/1/2002
REPORT_START_TIME    00:00:00
END_DATE             1/2/2002
END_TIME             12:00:00
SWEEP_START          01/01
SWEEP_END            12/31
DRY_DAYS             0
REPORT_STEP          00:01:00
WET_STEP             00:01:00
DRY_STEP             00:05:00
ROUTING_STEP         0:00:30
RULE_STEP            00:00:00
INERTIAL_DAMPING     PARTIAL
NORMAL_FLOW_LIMITED  BOTH
FORCE_MAIN_EQUATION  H-W
VARIABLE_STEP        0.75
LENGTHENING_STEP     0
MIN_SURFAREA         1.167
MAX_TRIALS           8
HEAD_TOLERANCE       0.0015
SYS_FLOW_TOL         5
LAT_FLOW_TOL         5
MINIMUM_STEP         0.5
THREADS              1


;;____________________________________________________________________________________________________
[REPORT]
SUBCATCHMENTS  ALL
NODES          ALL
LINKS          ALL


;;____________________________________________________________________________________________________
[JUNCTIONS]
A13 3.838566 1.5 0 0 500
A14 3.751199 1.5 0 0 500
A1 3.838487 1.545128 0 0 500
A3 4.364434 1.5 0 0 500
A5 4.30354 1.5 0 0 500
A182 4.362197 1.5 0 0 500
A4 3.835876 1.9 0 0 500
A7 3.756667 1.5 0 0 500
A209 3.756602 1.5 0 0 500
A8 3.75655 1.5 0 0 500
A9 3.751729 1.5 0 0 500
A146 4.324724 1.5 0 0 500
A11 4.148109 1.5 0 0 500
A145 4.224189 1.5 0 0 500
A12 4.118574 1.5 0 0 500
A93 3.764048 1.7 0 0 500
A16 4.260467 1.7 0 0 500
A205 4.425543 1.5 0 0 500
A204 4.258882 1.5 0 0 500
A17 4.058817 1.7 0 0 500
A18 3.750807 1.7 0 0 500
A203 3.938165 1.5 0 0 500
A23 3.825661 1.5 0 0 500
A20 3.825592 1.5 0 0 500
A21 3.75021 1.5 0 0 500
A155 4.60694 1.5 0 0 500
A213 4.302218 1.5 0 0 500
A24 4.247711 1.5 0 0 500
A25 3.827428 1.9 0 0 500
A28 4.790985 1.5 0 0 500
A208 4.383208 1.9 0 0 500
A26 3.994306 2.2 0 0 500
A227 3.932851 1.5 0 0 500
A183 3.81027 1.5 0 0 500
A202 3.810274 1.5 0 0 500
A31 3.810185 1.5 0 0 500
A34 3.838944 1.5 0 0 500
A29 3.797633 1.5 0 0 500
A30 3.79754 1.5 0 0 500
A32 3.758689 1.5 0 0 500
A55 4.026443 1.5 0 0 500
A35 3.951458 1.5 0 0 500
A201 3.93919 1.5 0 0 500
A200 3.947236 1.5 0 0 500
A36 3.951395 1.5 0 0 500
A48 3.892253 1.5 0 0 500
A49 3.773108 1.5 0 0 500
A37 3.726484 1.7 0 0 500
A38 3.596317 1.800945 0 0 500
A102 3.774258 1.5 0 0 500
A107 3.750184 1.5 0 0 500
A39 3.750141 1.5 0 0 500
A104 3.750005 1.5 0 0 500
A40 3.750073 1.500069 0 0 500
A170 3.779648 1.5 0 0 500
A45 3.827696 1.5 0 0 500
A42 3.750287 1.5 0 0 500
A41 3.77949 1.550066 0 0 500
A46 4.515939 1.5 0 0 500
A228 4.544246 1.5 0 0 500
A51 4.255547 1.5 0 0 500
A47 4.240837 1.7 0 0 500
A52 3.803485 1.9 0 0 500
A53 3.754689 1.9 0 0 500
A56 3.896626 1.5 0 0 500
A114 3.883773 1.5 0 0 500
A57 3.841671 1.5 0 0 500
A115 3.765865 1.5 0 0 500
A110 4.435533 1.5 0 0 500
A58 4.186773 1.7 0 0 500
A111 4.190423 1.7 0 0 500
B40-2 3.796747 1.9 0 0 500
A112 3.75814 1.9 0 0 500
A178 3.993868 1.5 0 0 500
A60 4.170984 1.5 0 0 500
A219 4.006641 1.5 0 0 500
A61 3.784631 1.7 0 0 500
A65 4.118916 1.5 0 0 500
A63 3.865548 2.095837 0 0 500
A218 4.33638 1.5 0 0 500
A68 3.972266 1.9 0 0 500
A66 3.87159 2.043344 0 0 500
A217 3.790808 1.5 0 0 500
A187 3.790844 1.5 0 0 500
A266 3.791081 1.738563 0 0 500
A69 3.750349 1.7 0 0 500
A72 3.790749 1.5 0 0 500
A73 4.589338 1.7 0 0 500
A74 4.127829 2.05 0 0 500
A232 4.299446 1.7 0 0 500
A79 3.988628 2.356004 0 0 500
A233 3.76067 1.9 0 0 500
A80 3.938093 2.2 0 0 500
A271 4.753312 2.2 0 0 500
A263 4.260377 2.5 0 0 500
A75 3.757626 2.7 0 0 500
A77 5.236324 1.7 0 0 500
A78 4.612909 2.05 0 0 500
A261 3.906901 2.5 0 0 500
A244 5.565364 1.7 0 0 500
A245 5.552039 1.7 0 0 500
A81 5.275431 1.7 0 0 500
A135 5.465677 1.7 0 0 500
A82 4.952575 1.9 0 0 500
A133 4.46329 2.2 0 0 500
A256 5.121924 1.5 0 0 500
A134 4.260307 2.35 0 0 500
A83 4.407284 2.05 0 0 500
A84 3.816172 2.5 0 0 500
A225 3.754281 2.5 0 0 500
A257 3.916983 1.9 0 0 500
A88 4.014613 1.5 0 0 500
A90 3.653098 2.05 0 0 500
A89 4.014524 1.5 0 0 500
A87 3.439904 2.05 0 0 500
A85 3.750916 1.7 0 0 500
A108 4.102377 1.5 0 0 500
A95 4.118416 1.5 0 0 500
A96 4.020458 1.5 0 0 500
A216 4.336032 1.5 0 0 500
A109 4.27351 1.5 0 0 500
A98 3.821842 1.9 0 0 500
A99 3.750407 1.9 0 0 500
A119 3.871939 1.5 0 0 500
A117 3.753677 1.5 0 0 500
A214 3.869932 1.5 0 0 500
A120 4.052308 1.5 0 0 500
A121 3.869806 1.5 0 0 500
A174 3.974895 1.5 0 0 500
A122 3.778877 1.5 0 0 500
A123 4.059685 1.5 0 0 500
A258 4.428136 1.5 0 0 500
A259 4.199396 1.7 0 0 500
A260 4.026594 1.7 0 0 500
A125 3.75338 1.9 0 0 500
A251 4.800521 1.5 0 0 500
A252 4.800453 1.5 0 0 500
A255 4.565489 1.7 0 0 500
A250 4.778413 1.5 0 0 500
A129 4.638706 1.5 0 0 500
A127 4.460983 1.5 0 0 500
A132 4.449149 1.7 0 0 500
A128 4.200302 1.7 0 0 500
A130 4.132838 1.7 0 0 500
A131 3.82348 1.9 0 0 500
A253 3.761561 1.9 0 0 500
A246 4.233985 1.5 0 0 500
A247 4.233887 1.5 0 0 500
A136 4.229548 1.5 0 0 500
A137 4.130373 1.5 0 0 500
A138 3.956223 1.5 0 0 500
A248 3.761186 1.5 0 0 500
A166 4.468956 1.7 0 0 500
A165 4.173622 1.7 0 0 500
A139 3.952793 1.9 0 0 500
A215 4.332597 1.5 0 0 500
A140 3.835091 1.9 0 0 500
A141 3.774924 1.9 0 0 500
A143 4.471745 1.9 0 0 500
A144 3.868056 2.05 0 0 500
A192 3.779548 2.05 0 0 500
A270 4.243607 2.05 0 0 500
A147 3.981844 2.05 0 0 500
A149 3.909627 1.9 0 0 500
A151 4.679033 1.5 0 0 500
A212 4.37756 1.5 0 0 500
A220 4.275264 1.5 0 0 500
A152 3.849119 1.9 0 0 500
A153 4.845498 1.5 0 0 500
A199 4.989415 1.5 0 0 500
A154 4.365816 1.9 0 0 500
A185 3.752469 2.2 0 0 500
A157 3.95546 1.5 0 0 500
A159 3.906598 1.5 0 0 500
A160 3.906447 1.5 0 0 500
A161 4.307584 1.9 0 0 500
A162 3.864965 2.05 0 0 500
A241 3.604498 2.05 0 0 500
A163 3.750312 1.5 0 0 500
A164 3.750146 1.5 0 0 500
A167 4.470754 1.7 0 0 500
A168 3.753589 2.05 0 0 500
A171 4.373823 2.2 0 0 500
A172 3.940907 2.35 0 0 500
A175 4.057877 1.5 0 0 500
A176 3.752384 1.5 0 0 500
A267 4.635939 1.5 0 0 500
A211 4.621967 1.5 0 0 500
A184 4.574666 1.5 0 0 500
A179 3.906906 2.05 0 0 500
A180 3.751421 2.05 0 0 500
A269 4.528404 1.5 0 0 500
A188 3.754287 1.9 0 0 500
A190 3.940506 1.7 0 0 500
A210 3.793567 1.5 0 0 500
A191 3.593496 1.7 0 0 500
A194 3.762948 1.5 0 0 500
A196 4.092367 1.7 0 0 500
A197 3.751348 1.9 0 0 500
A206 4.269953 1.5 0 0 500
A229 3.931073 1.5 0 0 500
A207 3.931021 1.5 0 0 500
A230 3.750568 1.5 0 0 500
A222 4.145713 1.5 0 0 500
A223 4.102635 1.5 0 0 500
A268 4.331683 1.5 0 0 500
A235 4.331525 1.5 0 0 500
A236 3.751271 1.7 0 0 500
A238 3.963754 1.9 0 0 500

;;____________________________________________________________________________________________________
[OUTFALLS]
O4 3.75 FREE NO
O1 3.75 FREE NO
O2 3.75 FREE NO
O3 3.75 FREE NO
O22 3.75 FREE NO
O5 3.75 FREE NO
O6 3.75 FREE NO
O37 3.75 FREE NO
O7 3.75 FREE NO
O8 3.75 FREE NO
O11 3.75 FREE NO
O25 3.75 FREE NO
O26 3.75 FREE NO
O28 3.75 FREE NO
O27 3.75 FREE NO
O10 3.75 FREE NO
O9 3.75 FREE NO
O12 3.75 FREE NO
O30 3.75 FREE NO
O29 3.75 FREE NO
O13 3.75 FREE NO
O14 3.75 FREE NO
O21 3.75 FREE NO
O20 3.75 FREE NO
O15 3.75 FREE NO
O16 3.75 FREE NO
O17 3.75 FREE NO
O52 3.75 FREE NO
O61 3.75 FREE NO
O18 3.75 FREE NO
O60 3.75 FREE NO
O50 3.75 FREE NO
O19 3.75 FREE NO
O23 3.75 FREE NO
O24 3.75 FREE NO
O31 3.75 FREE NO
O62 3.75 FREE NO
O32 3.75 FREE NO
O33 3.75 FREE NO
O59 3.75 FREE NO
O58 3.75 FREE NO
O34 3.75 FREE NO
O45 3.75 FREE NO
O35 3.75 FREE NO
O36 3.75 FREE NO
O48 3.75 FREE NO
O43 3.75 FREE NO
O38 3.75 FREE NO
O55 3.75 FREE NO
O56 3.75 FREE NO
O57 3.75 FREE NO
O39 3.75 FREE NO
O40 3.75 FREE NO
O41 3.75 FREE NO
O42 3.75 FREE NO
O44 3.75 FREE NO
O46 3.75 FREE NO
O47 3.75 FREE NO
O51 3.75 FREE NO
O49 3.75 FREE NO
O53 3.75 FREE NO
O54 3.75 FREE NO

;;____________________________________________________________________________________________________
[CONDUITS]
A13-A1 A13 A1 119.4165 0.022 0 0 0
A14-O4 A14 O4 0.847735 0.022 0 0 0
A1-A14 A1 A14 160.8369 0.022 0 0 0
A1-O1 A1 O1 246.1994 0.022 0.04512768 0 0
A3-A4 A3 A4 146.2913 0.022 0 0.4 0
A5-A4 A5 A4 132.777 0.022 0 0.4 0
A182-A4 A182 A4 138.7551 0.022 0 0.4 0
A4-O2 A4 O2 67.28844 0.022 0 0 0
A7-A8 A7 A8 176.4933 0.022 0 0 0
A209-A8 A209 A8 77.85506 0.022 0 0 0
A8-A9 A8 A9 69.98014 0.022 0 0 0
A9-O3 A9 O3 21.90099 0.022 4.440892E-16 0 0
A146-A145 A146 A145 242.0837 0.022 0 0 0
A11-A12 A11 A12 76.06481 0.022 0 0 0
A145-A12 A145 A12 96.36024 0.022 0 0 0
A12-A93 A12 A93 73 0.022 0 0.2 0
A93-O22 A93 O22 19.22849 0.022 0 0 0
A16-A17 A16 A17 140.337 0.022 0 0 0
A205-A17 A205 A17 121.1492 0.022 0 0.2 0
A204-A17 A204 A17 98.0839 0.022 0 0.2 0
A17-A18 A17 A18 159.7004 0.022 0.2 0.2 0
A18-O5 A18 O5 0.8440265 0.022 0 0 0
A203-A20 A203 A20 90.21644 0.022 0 0 0
A23-A20 A23 A20 103.7769 0.022 0 4.440892E-16 0
A20-A21 A20 A21 159.3271 0.022 4.440892E-16 4.440892E-16 0
A21-O6 A21 O6 0.2138866 0.022 0 0 0
A155-A25 A155 A25 281.1137 0.022 0 0.4 0
A213-A25 A213 A25 113.5671 0.022 0 0.4 0
A24-A25 A24 A25 77.20859 0.022 0 0.4 0
A25-O37 A25 O37 67.05348 0.022 0 0 0
A28-A26 A28 A26 78.34687 0.022 0 0.7 0
A208-A26 A208 A26 135.1175 0.022 0 0.3 0
A26-O7 A26 O7 235.2011 0.022 0 0 0
A227-A31 A227 A31 112.1122 0.022 0 0 0
A183-A31 A183 A31 128.5346 0.022 0 0 0
A202-A31 A202 A31 133.6925 0.022 0 0 0
A31-A30 A31 A30 165.0407 0.022 0 0 0
A34-A30 A34 A30 107.5494 0.022 0 0 0
A29-A30 A29 A30 140.0971 0.022 0 0 0
A30-A32 A30 A32 62.2082 0.022 0 4.440892E-16 0
A32-O8 A32 O8 11.94094 0.022 0 0 0
A55-A36 A55 A36 99.94567 0.022 0 0 0
A35-A36 A35 A36 95.55761 0.022 0 0 0
A201-A48 A201 A48 108.0236 0.022 0 0 0
A200-A48 A200 A48 111.5924 0.022 0 0 0
A36-A48 A36 A48 165.8217 0.022 0 0 0
A48-A49 A48 A49 62.87752 0.022 0 0 0
A49-O11 A49 O11 12.34538 0.022 0 0 0
A37-A38 A37 A38 108.3688 0.022 0 0 0
A38-O25 A38 O25 34.64271 0.022 0.2 0 0
A38-A102 A38 A102 92 0.022 0.3009445 4.440892E-16 0
A102-O26 A102 O26 20.34083 0.022 0 0 0
A107-A40 A107 A40 167 0.022 0 0 0
A39-A40 A39 A40 102.4117 0.022 0 0 0
A104-O27 A104 O27 1.259225 0.022 0 0 0
A40-O28 A40 O28 56 0.022 0 0 0
A40-A104 A40 A104 46.8 0.022 6.935727E-05 0 0
A170-A41 A170 A41 238.8158 0.022 0 0 0
A45-A41 A45 A41 86.11592 0.022 0 0 0
A42-O9 A42 O9 0.3040082 0.022 0 0 0
A41-O10 A41 O10 178.9967 0.022 0 0 0
A41-A42 A41 A42 213.8413 0.022 0.05006621 0 0
A46-A47 A46 A47 157 0.022 0 0.2 0
A228-A47 A228 A47 101.7792 0.022 0 0.2 0
A51-A52 A51 A52 110.4013 0.022 0 0.4 0
A47-A52 A47 A52 166.7961 0.022 0 0.2 0
A52-A53 A52 A53 65.24358 0.022 0 0 0
A53-O12 A53 O12 6.699484 0.022 0 0 0
A56-A57 A56 A57 103.9082 0.022 0 0 0
A114-A57 A114 A57 150 0.022 0 0 0
A57-A115 A57 A115 71.76878 0.022 0 4.440892E-16 0
A115-O30 A115 O30 10.52019 0.022 0 0 0
A110-A111 A110 A111 167.3106 0.022 0 0.2 0
A58-B40-2 A58 B40-2 172.5537 0.022 0 0.2 0
A111-B40-2 A111 B40-2 191.5984 0.022 0 0.2 0
B40-2-A112 B40-2 A112 36.00095 0.022 0 0 0
A112-O29 A112 O29 7.611516 0.022 4.440892E-16 0 0
A178-A61 A178 A61 76.38291 0.022 0 0.2 0
A60-A61 A60 A61 164.5713 0.022 0 0.2 0
A219-A61 A219 A61 84.9548 0.022 0 0.2 0
A61-O13 A61 O13 42.60199 0.022 0 0 0
A65-A63 A65 A63 101.5262 0.022 0 0.2 0
A63-O14 A63 O14 157.5648 0.022 0 0 0
A63-O21 A63 O21 178.5013 0.022 0.1958371 0 0
A218-A66 A218 A66 107.873 0.022 0 0.4 0
A68-A66 A68 A66 155.0129 0.022 0 0 0
A66-O20 A66 O20 177.7922 0.022 0 0 0
A66-O15 A66 O15 172.1747 0.022 0.1433436 0 0
A217-A72 A217 A72 88.87751 0.022 0 0 0
A187-A72 A187 A72 143.8268 0.022 0 0 0
A266-A69 A266 A69 179.7965 0.022 0.238563 0.2 0
A266-A72 A266 A72 12.0351 0.022 0 4.440892E-16 0
A69-O16 A69 O16 0.2435186 0.022 0 0 0
A72-O17 A72 O17 178.6428 0.022 0 0 0
A73-A74 A73 A74 132.1201 0.022 0 0.35 0
A74-A79 A74 A79 132.1201 0.022 0 0 0
A232-A233 A232 A233 225.1925 0.022 0 0.2 0
A79-A232 A79 A232 163.0372 0.022 0.55 0.2 0
A79-A80 A79 A80 172.8554 0.022 0.3060037 0.15 0
A233-O52 A233 O52 8.911082 0.022 0 0 0
A80-O61 A80 O61 204.2637 0.022 0 0 0
A271-A263 A271 A263 148.1052 0.022 0 0.3 0
A263-A75 A263 A75 218.2711 0.022 0 0.2 0
A75-O18 A75 O18 6.200508 0.022 0 0 0
A77-A78 A77 A78 252.7685 0.022 0 0.35 0
A78-A261 A78 A261 237.8392 0.022 0 0.45 0
A261-O60 A261 O60 118.8519 0.022 0 0 0
A244-A245 A244 A245 17.35747 0.022 0 0 0
A245-A135 A245 A135 115.7117 0.022 0 0 0
A81-A82 A81 A82 129.3034 0.022 0 0.2 0
A135-A133 A135 A133 243.99 0.022 0.2 0.7 0
A82-A134 A82 A134 241.059 0.022 0 0.45 0
A133-A134 A133 A134 54.00812 0.022 0 0.15 0
A256-A83 A256 A83 129.4086 0.022 0 0.55 0
A134-A84 A134 A84 232.9443 0.022 0 0.15 0
A83-A84 A83 A84 154.1611 0.022 0 0.45 0
A84-A225 A84 A225 43.7848 0.022 0 0 0
A225-O50 A225 O50 2.940649 0.022 0 0 0
A257-A90 A257 A90 148.4261 0.022 0 0.15 0
A88-A89 A88 A89 133.7169 0.022 0 0 0
A90-A87 A90 A87 148.4261 0.022 0 0 0
A89-A87 A89 A87 123.511 0.022 0 0.55 0
A87-A85 A87 A85 37.30977 0.022 0.35 4.440892E-16 0
A85-O19 A85 O19 0.756838 0.022 0 0 0
A108-A96 A108 A96 166 0.022 0 0 0
A95-A96 A95 A96 82.83882 0.022 0 8.881784E-16 0
A96-O23 A96 O23 119.0914 0.022 8.881784E-16 0 0
A216-A98 A216 A98 105.9724 0.022 0 0.4 0
A109-A98 A109 A98 165.7891 0.022 0 0.4 0
A98-A99 A98 A99 106.0879 0.022 0 0 0
A99-O24 A99 O24 0.5542984 0.022 0 0 0
A119-A117 A119 A117 193.7076 0.022 0 0 0
A117-O31 A117 O31 3.353536 0.022 0 0 0
A214-A121 A214 A121 189.3811 0.022 0 0 0
A120-A121 A120 A121 186.43 0.022 0 0 0
A121-A122 A121 A122 149.7117 0.022 0 0 0
A174-A122 A174 A122 199.1283 0.022 0 4.440892E-16 0
A122-O62 A122 O62 30.1503 0.022 4.440892E-16 0 0
A123-O32 A123 O32 179.4575 0.022 0 0 0
A258-A259 A258 A259 91.12063 0.022 0 0.2 0
A259-A260 A259 A260 131.9816 0.022 0 0 0
A260-A125 A260 A125 63.20572 0.022 0 0.2 0
A125-O33 A125 O33 2.86379 0.022 0 0 0
A251-A252 A251 A252 101.6749 0.022 0 0 0
A252-A250 A252 A250 61.33561 0.022 0 0 0
A255-A132 A255 A132 133.1149 0.022 0 0 0
A250-A129 A250 A129 132.3138 0.022 0 0 0
A129-A130 A129 A130 181.1826 0.022 0 0.2 0
A127-A128 A127 A128 130.012 0.022 0 0.2 0
A132-A130 A132 A130 133.1149 0.022 0.2 0.2 0
A128-A131 A128 A131 160.9745 0.022 0 0.2 0
A130-A131 A130 A131 80.08683 0.022 0 0.2 0
A131-A253 A131 A253 71.63401 0.022 0 0 0
A253-O59 A253 O59 13.57185 0.022 0 0 0
A246-A247 A246 A247 147.7429 0.022 0 0 0
A247-A136 A247 A136 28.23717 0.022 0 0 0
A136-A137 A136 A137 177.3854 0.022 0 0 0
A137-A138 A137 A138 143.6079 0.022 0 0 0
A138-A248 A138 A248 164.8161 0.022 0 4.440892E-16 0
A248-O58 A248 O58 9.719181 0.022 0 0 0
A166-A165 A166 A165 218.0455 0.022 0 0 0
A165-A139 A165 A139 19.63788 0.022 0 0.2 0
A139-A140 A139 A140 127.4541 0.022 0 0 0
A215-A140 A215 A140 108.5403 0.022 0 0.4 0
A140-A141 A140 A141 44.45558 0.022 0 4.440892E-16 0
A141-O34 A141 O34 17.24911 0.022 0 0 0
A143-A144 A143 A144 334.9652 0.022 0 0.15 0
A144-A192 A144 A192 66.14463 0.022 0 0 0
A192-O45 A192 O45 21.96276 0.022 0 0 0
A270-A147 A270 A147 298.3653 0.022 0 8.881784E-16 0
A147-O35 A147 O35 259.0161 0.022 0 0 0
A149-O36 A149 O36 151.6054 0.022 0 0 0
A151-A152 A151 A152 280.2381 0.022 0 0.4 0
A212-A152 A212 A152 140.1445 0.022 0 0.4 0
A220-A152 A220 A152 77.72441 0.022 0 0.4 0
A152-O48 A152 O48 67.14093 0.022 0 0 0
A153-A154 A153 A154 95.68944 0.022 0 0.4 0
A199-A154 A199 A154 136.5211 0.022 0 0.4 0
A154-A185 A154 A185 295.6433 0.022 0 0.3 0
A185-O43 A185 O43 1.822088 0.022 0 0 0
A157-O38 A157 O38 101.9928 0.022 0 0 0
A159-A160 A159 A160 227.8022 0.022 0 0 0
A160-O55 A160 O55 268.6346 0.022 0 0 0
A161-A162 A161 A162 240.8603 0.022 0 0.15 0
A162-A241 A162 A241 247.629 0.022 0 0 0
A241-O56 A241 O56 2.837332 0.022 0.15 0 0
A163-A164 A163 A164 250.7423 0.022 0 4.440892E-16 0
A164-O57 A164 O57 219.6867 0.022 0 0 0
A167-A168 A167 A168 231.8409 0.022 0 0.35 0
A168-O39 A168 O39 3.258616 0.022 0 0 0
A171-A172 A171 A172 242.4232 0.022 0 0.15 0
A172-O40 A172 O40 162.6382 0.022 0 0 0
A175-A176 A175 A176 172.0095 0.022 0 4.440892E-16 0
A176-O41 A176 O41 1.647128 0.022 0 0 0
A267-A179 A267 A179 150.0622 0.022 0 0.55 0
A211-A179 A211 A179 144.0625 0.022 0 0.55 0
A184-A179 A184 A179 134.3813 0.022 0 0.55 0
A179-A180 A179 A180 159.543 0.022 0 0 0
A180-O42 A180 O42 1.06229 0.022 0 0 0
A269-A188 A269 A188 244.134 0.022 0 0.4 0
A188-O44 A188 O44 3.550258 0.022 0 0 0
A190-A191 A190 A191 231.2281 0.022 0 0 0
A210-A191 A210 A191 106.8068 0.022 0 0.2 0
A191-A194 A191 A194 68.74715 0.022 0.2 0 0
A194-O46 A194 O46 22.67903 0.022 0 0 0
A196-A197 A196 A197 123.0455 0.022 0 0.2 0
A197-O47 A197 O47 0.9869504 0.022 0 0 0
A206-A207 A206 A207 149.1765 0.022 0 0 0
A229-A207 A229 A207 78.32374 0.022 0 0 0
A207-A230 A207 A230 228.5275 0.022 0 4.440892E-16 0
A230-O51 A230 O51 0.3075499 0.022 0 0 0
A222-A223 A222 A223 83.28769 0.022 0 0 0
A223-O49 A223 O49 293.6147 0.022 0 0 0
A268-A235 A268 A235 237.2102 0.022 0 0 0
A235-A236 A235 A236 219.3778 0.022 0 0.2 0
A236-O53 A236 O53 1.289507 0.022 0 0 0
A238-O54 A238 O54 190.764 0.022 0 0 0

;;____________________________________________________________________________________________________
[XSECTIONS]
A13-A1 CIRCULAR 0.8 0 0 0 1
A14-O4 CIRCULAR 0.8 0 0 0 1
A1-A14 CIRCULAR 0.8 0 0 0 1
A1-O1 CIRCULAR 0.8 0 0 0 1
A3-A4 CIRCULAR 0.8 0 0 0 1
A5-A4 CIRCULAR 0.8 0 0 0 1
A182-A4 CIRCULAR 0.8 0 0 0 1
A4-O2 CIRCULAR 1.2 0 0 0 1
A7-A8 CIRCULAR 0.8 0 0 0 1
A209-A8 CIRCULAR 0.8 0 0 0 1
A8-A9 CIRCULAR 0.8 0 0 0 1
A9-O3 CIRCULAR 0.8 0 0 0 1
A146-A145 CIRCULAR 0.8 0 0 0 1
A11-A12 CIRCULAR 0.8 0 0 0 1
A145-A12 CIRCULAR 0.8 0 0 0 1
A12-A93 CIRCULAR 0.8 0 0 0 1
A93-O22 CIRCULAR 1 0 0 0 1
A16-A17 CIRCULAR 1 0 0 0 1
A205-A17 CIRCULAR 0.8 0 0 0 1
A204-A17 CIRCULAR 0.8 0 0 0 1
A17-A18 CIRCULAR 0.8 0 0 0 1
A18-O5 CIRCULAR 1 0 0 0 1
A203-A20 CIRCULAR 0.8 0 0 0 1
A23-A20 CIRCULAR 0.8 0 0 0 1
A20-A21 CIRCULAR 0.8 0 0 0 1
A21-O6 CIRCULAR 0.8 0 0 0 1
A155-A25 CIRCULAR 0.8 0 0 0 1
A213-A25 CIRCULAR 0.8 0 0 0 1
A24-A25 CIRCULAR 0.8 0 0 0 1
A25-O37 CIRCULAR 1.2 0 0 0 1
A28-A26 CIRCULAR 0.8 0 0 0 1
A208-A26 CIRCULAR 1.2 0 0 0 1
A26-O7 CIRCULAR 1.5 0 0 0 1
A227-A31 CIRCULAR 0.8 0 0 0 1
A183-A31 CIRCULAR 0.8 0 0 0 1
A202-A31 CIRCULAR 0.8 0 0 0 1
A31-A30 CIRCULAR 0.8 0 0 0 1
A34-A30 CIRCULAR 0.8 0 0 0 1
A29-A30 CIRCULAR 0.8 0 0 0 1
A30-A32 CIRCULAR 0.8 0 0 0 1
A32-O8 CIRCULAR 0.8 0 0 0 1
A55-A36 CIRCULAR 0.8 0 0 0 1
A35-A36 CIRCULAR 0.8 0 0 0 1
A201-A48 CIRCULAR 0.8 0 0 0 1
A200-A48 CIRCULAR 0.8 0 0 0 1
A36-A48 CIRCULAR 0.8 0 0 0 1
A48-A49 CIRCULAR 0.8 0 0 0 1
A49-O11 CIRCULAR 0.8 0 0 0 1
A37-A38 CIRCULAR 1 0 0 0 1
A38-O25 CIRCULAR 0.8 0 0 0 1
A38-A102 CIRCULAR 0.8 0 0 0 1
A102-O26 CIRCULAR 0.8 0 0 0 1
A107-A40 CIRCULAR 0.8 0 0 0 1
A39-A40 CIRCULAR 0.8 0 0 0 1
A104-O27 CIRCULAR 0.8 0 0 0 1
A40-O28 CIRCULAR 0.8 0 0 0 1
A40-A104 CIRCULAR 0.8 0 0 0 1
A170-A41 CIRCULAR 0.8 0 0 0 1
A45-A41 CIRCULAR 0.8 0 0 0 1
A42-O9 CIRCULAR 0.8 0 0 0 1
A41-O10 CIRCULAR 0.8 0 0 0 1
A41-A42 CIRCULAR 0.8 0 0 0 1
A46-A47 CIRCULAR 0.8 0 0 0 1
A228-A47 CIRCULAR 0.8 0 0 0 1
A51-A52 CIRCULAR 0.8 0 0 0 1
A47-A52 CIRCULAR 1 0 0 0 1
A52-A53 CIRCULAR 1.2 0 0 0 1
A53-O12 CIRCULAR 1.2 0 0 0 1
A56-A57 CIRCULAR 0.8 0 0 0 1
A114-A57 CIRCULAR 0.8 0 0 0 1
A57-A115 CIRCULAR 0.8 0 0 0 1
A115-O30 CIRCULAR 0.8 0 0 0 1
A110-A111 CIRCULAR 0.8 0 0 0 1
A58-B40-2 CIRCULAR 1 0 0 0 1
A111-B40-2 CIRCULAR 1 0 0 0 1
B40-2-A112 CIRCULAR 1.2 0 0 0 1
A112-O29 CIRCULAR 1.2 0 0 0 1
A178-A61 CIRCULAR 0.8 0 0 0 1
A60-A61 CIRCULAR 0.8 0 0 0 1
A219-A61 CIRCULAR 0.8 0 0 0 1
A61-O13 CIRCULAR 1 0 0 0 1
A65-A63 CIRCULAR 0.8 0 0 0 1
A63-O14 CIRCULAR 1 0 0 0 1
A63-O21 CIRCULAR 1.2 0 0 0 1
A218-A66 CIRCULAR 0.8 0 0 0 1
A68-A66 CIRCULAR 1.2 0 0 0 1
A66-O20 CIRCULAR 1.2 0 0 0 1
A66-O15 CIRCULAR 1.2 0 0 0 1
A217-A72 CIRCULAR 0.8 0 0 0 1
A187-A72 CIRCULAR 0.8 0 0 0 1
A266-A69 CIRCULAR 0.8 0 0 0 1
A266-A72 CIRCULAR 0.8 0 0 0 1
A69-O16 CIRCULAR 1 0 0 0 1
A72-O17 CIRCULAR 0.8 0 0 0 1
A73-A74 CIRCULAR 1 0 0 0 1
A74-A79 CIRCULAR 1.35 0 0 0 1
A232-A233 CIRCULAR 1 0 0 0 1
A79-A232 CIRCULAR 0.8 0 0 0 1
A79-A80 CIRCULAR 1.35 0 0 0 1
A233-O52 CIRCULAR 1.2 0 0 0 1
A80-O61 CIRCULAR 1.5 0 0 0 1
A271-A263 CIRCULAR 1.5 0 0 0 1
A263-A75 CIRCULAR 1.8 0 0 0 1
A75-O18 CIRCULAR 2 0 0 0 1
A77-A78 CIRCULAR 1 0 0 0 1
A78-A261 CIRCULAR 1.35 0 0 0 1
A261-O60 CIRCULAR 1.8 0 0 0 1
A244-A245 CIRCULAR 1 0 0 0 1
A245-A135 CIRCULAR 1 0 0 0 1
A81-A82 CIRCULAR 1 0 0 0 1
A135-A133 CIRCULAR 0.8 0 0 0 1
A82-A134 CIRCULAR 1.2 0 0 0 1
A133-A134 CIRCULAR 1.5 0 0 0 1
A256-A83 CIRCULAR 0.8 0 0 0 1
A134-A84 CIRCULAR 1.65 0 0 0 1
A83-A84 CIRCULAR 1.35 0 0 0 1
A84-A225 CIRCULAR 1.8 0 0 0 1
A225-O50 CIRCULAR 1.8 0 0 0 1
A257-A90 CIRCULAR 1.2 0 0 0 1
A88-A89 CIRCULAR 0.8 0 0 0 1
A90-A87 CIRCULAR 1.35 0 0 0 1
A89-A87 CIRCULAR 0.8 0 0 0 1
A87-A85 CIRCULAR 1 0 0 0 1
A85-O19 CIRCULAR 1 0 0 0 1
A108-A96 CIRCULAR 0.8 0 0 0 1
A95-A96 CIRCULAR 0.8 0 0 0 1
A96-O23 CIRCULAR 0.8 0 0 0 1
A216-A98 CIRCULAR 0.8 0 0 0 1
A109-A98 CIRCULAR 0.8 0 0 0 1
A98-A99 CIRCULAR 1.2 0 0 0 1
A99-O24 CIRCULAR 1.2 0 0 0 1
A119-A117 CIRCULAR 0.8 0 0 0 1
A117-O31 CIRCULAR 0.8 0 0 0 1
A214-A121 CIRCULAR 0.8 0 0 0 1
A120-A121 CIRCULAR 0.8 0 0 0 1
A121-A122 CIRCULAR 0.8 0 0 0 1
A174-A122 CIRCULAR 0.8 0 0 0 1
A122-O62 CIRCULAR 0.8 0 0 0 1
A123-O32 CIRCULAR 0.8 0 0 0 1
A258-A259 CIRCULAR 0.8 0 0 0 1
A259-A260 CIRCULAR 1 0 0 0 1
A260-A125 CIRCULAR 1 0 0 0 1
A125-O33 CIRCULAR 1.2 0 0 0 1
A251-A252 CIRCULAR 0.8 0 0 0 1
A252-A250 CIRCULAR 0.8 0 0 0 1
A255-A132 CIRCULAR 1 0 0 0 1
A250-A129 CIRCULAR 0.8 0 0 0 1
A129-A130 CIRCULAR 0.8 0 0 0 1
A127-A128 CIRCULAR 0.8 0 0 0 1
A132-A130 CIRCULAR 0.8 0 0 0 1
A128-A131 CIRCULAR 1 0 0 0 1
A130-A131 CIRCULAR 1 0 0 0 1
A131-A253 CIRCULAR 1.2 0 0 0 1
A253-O59 CIRCULAR 1.2 0 0 0 1
A246-A247 CIRCULAR 0.8 0 0 0 1
A247-A136 CIRCULAR 0.8 0 0 0 1
A136-A137 CIRCULAR 0.8 0 0 0 1
A137-A138 CIRCULAR 0.8 0 0 0 1
A138-A248 CIRCULAR 0.8 0 0 0 1
A248-O58 CIRCULAR 0.8 0 0 0 1
A166-A165 CIRCULAR 1 0 0 0 1
A165-A139 CIRCULAR 1 0 0 0 1
A139-A140 CIRCULAR 1.2 0 0 0 1
A215-A140 CIRCULAR 0.8 0 0 0 1
A140-A141 CIRCULAR 1.2 0 0 0 1
A141-O34 CIRCULAR 1.2 0 0 0 1
A143-A144 CIRCULAR 1.2 0 0 0 1
A144-A192 CIRCULAR 1.35 0 0 0 1
A192-O45 CIRCULAR 1.35 0 0 0 1
A270-A147 CIRCULAR 1.35 0 0 0 1
A147-O35 CIRCULAR 1.35 0 0 0 1
A149-O36 CIRCULAR 1.2 0 0 0 1
A151-A152 CIRCULAR 0.8 0 0 0 1
A212-A152 CIRCULAR 0.8 0 0 0 1
A220-A152 CIRCULAR 0.8 0 0 0 1
A152-O48 CIRCULAR 1.2 0 0 0 1
A153-A154 CIRCULAR 0.8 0 0 0 1
A199-A154 CIRCULAR 0.8 0 0 0 1
A154-A185 CIRCULAR 1.2 0 0 0 1
A185-O43 CIRCULAR 1.5 0 0 0 1
A157-O38 CIRCULAR 0.8 0 0 0 1
A159-A160 CIRCULAR 0.8 0 0 0 1
A160-O55 CIRCULAR 0.8 0 0 0 1
A161-A162 CIRCULAR 1.2 0 0 0 1
A162-A241 CIRCULAR 1.35 0 0 0 1
A241-O56 CIRCULAR 1.2 0 0 0 1
A163-A164 CIRCULAR 0.8 0 0 0 1
A164-O57 CIRCULAR 0.8 0 0 0 1
A167-A168 CIRCULAR 1 0 0 0 1
A168-O39 CIRCULAR 1.35 0 0 0 1
A171-A172 CIRCULAR 1.5 0 0 0 1
A172-O40 CIRCULAR 1.65 0 0 0 1
A175-A176 CIRCULAR 0.8 0 0 0 1
A176-O41 CIRCULAR 0.8 0 0 0 1
A267-A179 CIRCULAR 0.8 0 0 0 1
A211-A179 CIRCULAR 0.8 0 0 0 1
A184-A179 CIRCULAR 0.8 0 0 0 1
A179-A180 CIRCULAR 1.35 0 0 0 1
A180-O42 CIRCULAR 1.35 0 0 0 1
A269-A188 CIRCULAR 0.8 0 0 0 1
A188-O44 CIRCULAR 1.2 0 0 0 1
A190-A191 CIRCULAR 1 0 0 0 1
A210-A191 CIRCULAR 0.8 0 0 0 1
A191-A194 CIRCULAR 0.8 0 0 0 1
A194-O46 CIRCULAR 0.8 0 0 0 1
A196-A197 CIRCULAR 1 0 0 0 1
A197-O47 CIRCULAR 1.2 0 0 0 1
A206-A207 CIRCULAR 0.8 0 0 0 1
A229-A207 CIRCULAR 0.8 0 0 0 1
A207-A230 CIRCULAR 0.8 0 0 0 1
A230-O51 CIRCULAR 0.8 0 0 0 1
A222-A223 CIRCULAR 0.8 0 0 0 1
A223-O49 CIRCULAR 0.8 0 0 0 1
A268-A235 CIRCULAR 0.8 0 0 0 1
A235-A236 CIRCULAR 0.8 0 0 0 1
A236-O53 CIRCULAR 1 0 0 0 1
A238-O54 CIRCULAR 1.2 0 0 0 1

;;____________________________________________________________________________________________________
[TIMESERIES]
;; No Data

;;____________________________________________________________________________________________________
[RAINGAGES]
RG INTENSITY 0:05 1 TIMESERIES 1y

;;____________________________________________________________________________________________________
[SUBCATCHMENTS]
S1 RG A162 2.318142 90 90.25048 0.5 0
S2 RG A133 4.611114 90 142.3008 0.5 0
S3 RG A160 6.323972 90 235.8387 0.5 0
S4 RG A178 0.5576904 90 68.3471 0.5 0
S5 RG A83 3.626357 90 179.8752 0.5 0
S6 RG A83 1.335426 90 61.03024 0.5 0
S7 RG A30 2.425051 90 129.1856 0.5 0
S8 RG A21 1.753098 90 136.6063 0.5 0
S9 RG A9 0.1773905 90 35.05252 0.5 0
S10 RG A77 3.024151 90 121.1428 0.5 0
S11 RG A256 1.808891 90 81.23142 0.5 0
S12 RG A257 2.179719 90 99.11309 0.5 0
S13 RG A74 4.641171 90 210.2714 0.5 0
S14 RG A271 3.267121 90 126.2538 0.5 0
S15 RG A28 1.781481 90 100.9032 0.5 0
S16 RG A1 2.763365 90 145.8104 0.5 0
S17 RG A48 2.013429 90 104.4543 0.5 0
S18 RG A227 1.677498 90 118.7189 0.5 0
S19 RG A16 1.576265 90 111.9284 0.5 0
S20 RG A208 1.837601 90 89.60233 0.5 0
S21 RG A47 1.369587 90 74.63005 0.5 0
S22 RG A55 1.389679 90 84.05823 0.5 0
S23 RG A218 1.24287 90 106.4142 0.5 0
S24 RG A45 1.199874 90 118.3636 0.5 0
S25 RG A68 1.892572 90 137.6044 0.5 0
S26 RG A46 1.10918 90 71.27411 0.5 0
S27 RG A98 0.6637953 90 36.48981 0.5 0
S28 RG A93 0.294266 90 41.03762 0.5 0
S29 RG A203 1.79143 90 108.088 0.5 0
S30 RG A17 1.716002 90 83.75543 0.5 0
S31 RG A271 6.517635 90 133.5339 0.5 0
S32 RG A80 2.037911 90 105.964 0.5 0
S33 RG A258 0.9006551 90 86.07969 0.5 0
S34 RG A244 2.547614 90 127.7164 0.5 0
S35 RG A133 3.325099 90 127.1403 0.5 0
S36 RG A161 5.211608 90 209.3695 0.5 0
S37 RG A247 2.515757 90 123.0217 0.5 0
S38 RG A137 2.451044 90 174.0869 0.5 0
S39 RG A136 2.31762 90 136.6134 0.5 0
S40 RG A128 2.416542 90 141.9759 0.5 0
S41 RG A259 2.86132 90 163.1951 0.5 0
S42 RG A79 1.896062 90 80.58697 0.5 0
S43 RG A78 4.814646 90 99.54809 0.5 0
S44 RG A261 6.891799 90 142.9927 0.5 0
S45 RG A263 7.779174 90 166.3931 0.5 0
S46 RG A206 0.968699 90 63.17832 0.5 0
S47 RG A56 1.166282 90 114.5043 0.5 0
S48 RG A232 2.503351 90 100.0375 0.5 0
S49 RG A215 1.52001 90 81.72898 0.5 0
S50 RG A8 1.868313 90 112.1377 0.5 0
S51 RG A41 3.78009 90 133.1014 0.5 0
S52 RG A112 0.08103433 90 12.94242 0.5 0
S53 RG A58 1.520802 90 113.1763 0.5 0
S54 RG A104 0.09457945 90 14.95899 0.5 0
S55 RG A40 0.6223897 90 59.82476 0.5 0
S56 RG A38 0.7803563 90 66.97859 0.5 0
S57 RG A63 2.744917 90 142.2543 0.5 0
S58 RG A60 1.706544 90 96.85017 0.5 0
S59 RG A233 2.828292 90 109.382 0.5 0
S60 RG A115 0.4947907 90 52.51591 0.5 0
S61 RG A90 3.556506 90 147.6835 0.5 0
S62 RG A90 0.8728261 90 47.41005 0.5 0
S63 RG A125 0.6646268 90 47.56444 0.5 0
S64 RG A85 0.9224117 90 55.64382 0.5 0
S65 RG A261 5.884503 90 122.3032 0.5 0
S66 RG A225 0.594032 90 39.07268 0.5 0
S67 RG A75 6.117752 90 137.3021 0.5 0
S68 RG A200 1.125696 90 92.32139 0.5 0
S69 RG A34 0.9950435 90 106.7844 0.5 0
S70 RG A32 0.446356 90 50.03784 0.5 0
S71 RG A230 2.398436 90 97.99497 0.5 0
S72 RG A26 4.021241 90 144.2779 0.5 0
S73 RG A1 5.613826 90 195.107 0.5 0
S74 RG A14 2.751684 90 155.9549 0.5 0
S75 RG A197 2.860097 90 131.5934 0.5 0
S76 RG A192 0.2598248 90 44.57095 0.5 0
S77 RG A18 2.108036 90 147.18 0.5 0
S78 RG A190 3.562081 90 126.0296 0.5 0
S79 RG A144 3.295675 90 134.0255 0.5 0
S80 RG A42 3.284322 90 191.0048 0.5 0
S81 RG A194 0.5306069 90 54.25695 0.5 0
S82 RG A238 1.979375 90 112.9783 0.5 0
S83 RG A155 1.863366 90 114.3477 0.5 0
S84 RG A238 3.025716 90 110.4815 0.5 0
S85 RG A223 0.7695916 90 49.68932 0.5 0
S86 RG A185 3.86715 90 96.44564 0.5 0
S87 RG A157 1.25428 90 76.97038 0.5 0
S88 RG A222 1.15336 90 73.13432 0.5 0
S89 RG A213 1.301436 90 80.02617 0.5 0
S90 RG A153 1.463445 90 88.3685 0.5 0
S91 RG A25 0.4017815 90 38.91549 0.5 0
S92 RG A24 0.8219824 90 55.29393 0.5 0
S93 RG A185 3.363893 90 201.7576 0.5 0
S94 RG A154 1.774768 90 110.8736 0.5 0
S95 RG A157 1.021893 90 57.96336 0.5 0
S96 RG A220 0.9301281 90 62.30396 0.5 0
S97 RG A152 0.43416 90 40.21824 0.5 0
S98 RG A151 1.986342 90 127.8855 0.5 0
S99 RG A199 2.0524 90 123.0977 0.5 0
S100 RG A149 2.52484 90 141.8481 0.5 0
S101 RG A211 1.716616 90 110.4089 0.5 0
S102 RG A212 1.53529 90 98.84575 0.5 0
S103 RG A184 1.501261 90 104.8473 0.5 0
S104 RG A267 1.751694 90 118.6975 0.5 0
S105 RG A182 1.530169 90 106.4702 0.5 0
S106 RG A179 2.162204 90 194.6194 0.5 0
S107 RG A5 1.144838 90 82.91854 0.5 0
S108 RG A4 0.517182 90 47.19988 0.5 0
S109 RG A180 1.867502 90 116.0719 0.5 0
S110 RG A3 1.503373 90 102.0046 0.5 0
S111 RG A149 2.326924 90 101.4279 0.5 0
S112 RG A143 5.502791 90 164.4633 0.5 0
S113 RG A235 6.278857 90 238.2982 0.5 0
S114 RG A236 4.273314 90 152.4806 0.5 0
S115 RG A270 6.063034 90 190.6557 0.5 0
S116 RG A269 1.985253 90 102.7926 0.5 0
S117 RG A188 4.030835 90 172.1448 0.5 0
S118 RG A147 1.183761 90 54.38327 0.5 0
S119 RG A139 1.80918 90 126.9605 0.5 0
S120 RG A167 3.659221 90 151.0022 0.5 0
S121 RG A168 1.590378 90 84.69265 0.5 0
S122 RG A168 2.41319 90 92.9637 0.5 0
S123 RG A146 1.03348 90 58.18695 0.5 0
S124 RG A166 3.384049 90 142.128 0.5 0
S125 RG A41 3.672029 90 134.2114 0.5 0
S126 RG A171 9.261298 90 293.6869 0.5 0
S127 RG A172 3.088669 90 138.4563 0.5 0
S128 RG A172 1.053635 90 47.2315 0.5 0
S129 RG A196 3.112852 90 140.0467 0.5 0
S130 RG A11 0.9993109 90 101.3621 0.5 0
S131 RG A141 0.3472412 90 52.83819 0.5 0
S132 RG A37 3.186774 90 91.54549 0.5 0
S133 RG A266 1.331272 90 95.80804 0.5 0
S134 RG A68 1.917942 90 138.7686 0.5 0
S135 RG A72 2.751803 90 115.5816 0.5 0
S136 RG A65 1.162723 90 99.40472 0.5 0
S137 RG A63 3.022614 90 124.0128 0.5 0
S138 RG A4 1.442699 90 145.4216 0.5 0
S139 RG A152 1.893687 90 122.8875 0.5 0
S140 RG A25 1.668063 90 110.9503 0.5 0
S141 RG A205 1.881344 90 134.4917 0.5 0
S142 RG A20 1.826436 90 116.321 0.5 0
S143 RG A95 1.743935 90 134.0426 0.5 0
S144 RG A99 0.4765433 90 48.8357 0.5 0
S145 RG A98 1.56188 90 103.2267 0.5 0
S146 RG A216 1.664734 90 124.6738 0.5 0
S147 RG A108 1.126588 90 72.68744 0.5 0
S148 RG A58 1.530588 90 115.3621 0.5 0
S149 RG A109 0.8952833 90 70.18892 0.5 0
S150 RG A110 0.832723 90 72.87155 0.5 0
S151 RG A114 0.8496323 90 52.15229 0.5 0
S152 RG A228 1.6165 90 97.59524 0.5 0
S153 RG A219 0.8162928 90 91.55492 0.5 0
S154 RG A51 1.101288 90 98.98515 0.5 0
S155 RG A36 1.613344 90 96.11665 0.5 0
S156 RG A201 1.057118 90 81.03453 0.5 0
S157 RG A16 1.909248 90 135.5731 0.5 0
S158 RG A206 1.448614 90 140.727 0.5 0
S159 RG A208 1.997728 90 145.5567 0.5 0
S160 RG A207 1.602995 90 119.7447 0.5 0
S161 RG A73 2.67131 90 109.0602 0.5 0